 
data_oy3_100
# Yael Diskin-Posner
_audit_creation_method            'SHELXL-2014/7'
_shelx_SHELXL_version_number      '2014/7'
_chemical_name_systematic         ?
_chemical_name_common             ?
_chemical_melting_point           ?
_chemical_formula_moiety          'C14 H10'
_chemical_formula_sum
 'C14 H10' 
_chemical_formula_weight          178.22

loop_
 _atom_type_symbol
 _atom_type_description
 _atom_type_scat_dispersion_real
 _atom_type_scat_dispersion_imag
 _atom_type_scat_source
 'C'  'C'   0.0033   0.0016
 'International Tables Vol C Tables 4.2.6.8 and 6.1.1.4'
 'H'  'H'   0.0000   0.0000
 'International Tables Vol C Tables 4.2.6.8 and 6.1.1.4'
 
_space_group_crystal_system       monoclinic
_space_group_IT_number            14
_space_group_name_H-M_alt         'P 21/c'
_space_group_name_Hall            '-P 2ybc'
 
_shelx_space_group_comment
;
The symmetry employed for this shelxl refinement is uniquely defined
by the following loop, which should always be used as a source of
symmetry information in preference to the above space-group names.
They are only intended as comments.
;
 
loop_
 _space_group_symop_operation_xyz
 'x, y, z'
 '-x, y+1/2, -z+1/2'
 '-x, -y, -z'
 'x, -y-1/2, z-1/2'
 
_cell_length_a                    9.2877(8)
_cell_length_b                    5.9902(5)
_cell_length_c                    8.4127(8)
_cell_angle_alpha                 90
_cell_angle_beta                  102.526(4)
_cell_angle_gamma                 90
_cell_volume                      456.90(7)
_cell_formula_units_Z             2
_cell_measurement_temperature     100(2)
_cell_measurement_reflns_used     27441
_cell_measurement_theta_min       8.154
_cell_measurement_theta_max       91.408
 
_exptl_crystal_description        plate
_exptl_crystal_colour             colorless
_exptl_crystal_density_meas       ?
_exptl_crystal_density_method     ?
_exptl_crystal_density_diffrn     1.295          
_exptl_crystal_F_000              188
_exptl_transmission_factor_min    ?
_exptl_transmission_factor_max    ?
_exptl_crystal_size_max           0.500
_exptl_crystal_size_mid           0.400
_exptl_crystal_size_min           0.050
_exptl_absorpt_coefficient_mu     0.073
_shelx_estimated_absorpt_T_min    0.964
_shelx_estimated_absorpt_T_max    0.996
_exptl_absorpt_correction_type    multi-scan
_exptl_absorpt_correction_T_min   0.675
_exptl_absorpt_correction_T_max   1.000
_exptl_absorpt_process_details    
;
SADABS-2016/2 (Bruker,2016) was used for absorption correction.
wR2(int) was 0.1563 before and 0.0844 after correction.
The Ratio of minimum to maximum transmission is 0.3920.
The \l/2 correction factor is Not present.
;
_exptl_absorpt_special_details    ?
_diffrn_ambient_temperature       100(2)
_diffrn_radiation_wavelength      0.71073
_diffrn_radiation_type            MoK\a
_diffrn_source                    ?
_diffrn_measurement_device_type   'Bruker APEX-II CCD'
_diffrn_measurement_method         '\f and \w scans'
_diffrn_detector_area_resol_mean  ?
_diffrn_reflns_number             27441
_diffrn_reflns_av_unetI/netI      0.0669
_diffrn_reflns_av_R_equivalents   0.0884
_diffrn_reflns_limit_h_min        -18
_diffrn_reflns_limit_h_max        18
_diffrn_reflns_limit_k_min        -11
_diffrn_reflns_limit_k_max        11
_diffrn_reflns_limit_l_min        -16
_diffrn_reflns_limit_l_max        14
_diffrn_reflns_theta_min          4.077
_diffrn_reflns_theta_max          45.704
_diffrn_reflns_theta_full         25.242
_diffrn_measured_fraction_theta_max   0.984
_diffrn_measured_fraction_theta_full  0.989
_diffrn_reflns_Laue_measured_fraction_max    0.984
_diffrn_reflns_Laue_measured_fraction_full   0.989
_diffrn_reflns_point_group_measured_fraction_max   0.984
_diffrn_reflns_point_group_measured_fraction_full  0.989
_reflns_number_total              3852
_reflns_number_gt                 2590
_reflns_threshold_expression      'I > 2\s(I)'
_reflns_Friedel_coverage          0.000
_reflns_Friedel_fraction_max      .
_reflns_Friedel_fraction_full     .
 
_reflns_special_details
;
 Reflections were merged by SHELXL according to the crystal
 class for the calculation of statistics and refinement.
 
 _reflns_Friedel_fraction is defined as the number of unique
 Friedel pairs measured divided by the number that would be
 possible theoretically, ignoring centric projections and
 systematic absences.
;
 
_computing_data_collection        'Collect package Bruker APEX2'
_computing_cell_refinement        'SAINT V8.38A (?, 2016)'
_computing_data_reduction         'SAINT V8.38A (?, 2016)'
_computing_structure_solution     'SHELXT 2014/5 (Sheldrick, 2014)'
_computing_structure_refinement 'SHELXL-2014/7 (Sheldrick, 2014)'
_computing_molecular_graphics     'Olex2 (Dolomanov et al., 2009)'
_computing_publication_material   'Olex2 (Dolomanov et al., 2009)'
_refine_special_details           ?
_refine_ls_structure_factor_coef  Fsqd
_refine_ls_matrix_type            full
_refine_ls_weighting_scheme       calc
_refine_ls_weighting_details
'w=1/[\s^2^(Fo^2^)+(0.0781P)^2^+0.0403P] where P=(Fo^2^+2Fc^2^)/3'
_atom_sites_solution_primary      ?
_atom_sites_solution_secondary    ?
_atom_sites_solution_hydrogens    geom
_refine_ls_hydrogen_treatment     constr
_refine_ls_extinction_method      none
_refine_ls_extinction_coef        .
_refine_ls_number_reflns          3852
_refine_ls_number_parameters      64
_refine_ls_number_restraints      0
_refine_ls_R_factor_all           0.0818
_refine_ls_R_factor_gt            0.0524
_refine_ls_wR_factor_ref          0.1601
_refine_ls_wR_factor_gt           0.1411
_refine_ls_goodness_of_fit_ref    1.032
_refine_ls_restrained_S_all       1.032
_refine_ls_shift/su_max           0.001
_refine_ls_shift/su_mean          0.000
 
loop_
 _atom_site_label
 _atom_site_type_symbol
 _atom_site_fract_x
 _atom_site_fract_y
 _atom_site_fract_z
 _atom_site_U_iso_or_equiv
 _atom_site_adp_type
 _atom_site_occupancy
 _atom_site_site_symmetry_order  
 _atom_site_calc_flag
 _atom_site_refinement_flags_posn
 _atom_site_refinement_flags_adp
 _atom_site_refinement_flags_occupancy
 _atom_site_disorder_assembly
 _atom_site_disorder_group
C1 C 0.13121(7) 0.52642(11) 0.21770(7) 0.01798(12) Uani 1 1 d . . . . .
H1 H 0.0368 0.5785 0.1629 0.022 Uiso 1 1 calc R U . . .
C2 C 0.21732(6) 0.65602(10) 0.33470(7) 0.01531(10) Uani 1 1 d . . . . .
H2 H 0.1820 0.7973 0.3606 0.018 Uiso 1 1 calc R U . . .
C3 C 0.36003(6) 0.58150(9) 0.41866(6) 0.01199(9) Uani 1 1 d . . . . .
C4 C 0.45072(6) 0.71148(9) 0.53814(6) 0.01244(9) Uani 1 1 d . . . . .
H4 H 0.4177 0.8543 0.5640 0.015 Uiso 1 1 calc R U . . .
C5 C 0.58950(6) 0.63425(9) 0.62022(6) 0.01188(9) Uani 1 1 d . . . . .
C6 C 0.31714(6) 0.23555(10) 0.25662(7) 0.01470(10) Uani 1 1 d . . . . .
H6 H 0.3493 0.0928 0.2294 0.018 Uiso 1 1 calc R U . . .
C7 C 0.18220(7) 0.31358(11) 0.17743(7) 0.01756(11) Uani 1 1 d . . . . .
H7 H 0.1221 0.2255 0.0951 0.021 Uiso 1 1 calc R U . . .
 
loop_
 _atom_site_aniso_label
 _atom_site_aniso_U_11
 _atom_site_aniso_U_22
 _atom_site_aniso_U_33
 _atom_site_aniso_U_23
 _atom_site_aniso_U_13
 _atom_site_aniso_U_12
C1 0.0127(2) 0.0215(3) 0.0183(2) 0.00089(19) 0.00010(17) 0.00051(17)
C2 0.0127(2) 0.0157(2) 0.0170(2) 0.00087(16) 0.00202(16) 0.00210(15)
C3 0.01198(18) 0.01148(19) 0.01250(18) 0.00034(14) 0.00261(14) 0.00051(14)
C4 0.01288(19) 0.01093(19) 0.01357(19) -0.00075(14) 0.00300(15) 0.00077(14)
C5 0.01221(18) 0.0119(2) 0.01170(18) -0.00030(14) 0.00284(14) -0.00027(14)
C6 0.0148(2) 0.0147(2) 0.0145(2) -0.00256(16) 0.00274(16) -0.00177(15)
C7 0.0152(2) 0.0204(3) 0.0158(2) -0.00190(18) 0.00059(17) -0.00239(18)
 
_geom_special_details
;
 All esds (except the esd in the dihedral angle between two l.s. planes)
 are estimated using the full covariance matrix.  The cell esds are taken
 into account individually in the estimation of esds in distances, angles
 and torsion angles; correlations between esds in cell parameters are only
 used when they are defined by crystal symmetry.  An approximate (isotropic)
 treatment of cell esds is used for estimating esds involving l.s. planes.
;
 
loop_
 _geom_bond_atom_site_label_1
 _geom_bond_atom_site_label_2
 _geom_bond_distance
 _geom_bond_site_symmetry_2
 _geom_bond_publ_flag
C1 C2 1.3674(9) . ?
C1 C7 1.4263(9) . ?
C1 H1 0.9500 . ?
C2 C3 1.4314(8) . ?
C2 H2 0.9500 . ?
C3 C4 1.3996(8) . ?
C3 C5 1.4365(7) 3_666 ?
C4 C5 1.4022(7) . ?
C4 H4 0.9500 . ?
C5 C6 1.4296(7) 3_666 ?
C5 C3 1.4365(7) 3_666 ?
C6 C7 1.3678(8) . ?
C6 C5 1.4296(7) 3_666 ?
C6 H6 0.9500 . ?
C7 H7 0.9500 . ?
 
loop_
 _geom_angle_atom_site_label_1
 _geom_angle_atom_site_label_2
 _geom_angle_atom_site_label_3
 _geom_angle
 _geom_angle_site_symmetry_1
 _geom_angle_site_symmetry_3
 _geom_angle_publ_flag
C2 C1 C7 120.40(5) . . ?
C2 C1 H1 119.8 . . ?
C7 C1 H1 119.8 . . ?
C1 C2 C3 120.84(5) . . ?
C1 C2 H2 119.6 . . ?
C3 C2 H2 119.6 . . ?
C4 C3 C2 121.97(5) . . ?
C4 C3 C5 119.26(5) . 3_666 ?
C2 C3 C5 118.76(5) . 3_666 ?
C3 C4 C5 121.06(5) . . ?
C3 C4 H4 119.5 . . ?
C5 C4 H4 119.5 . . ?
C4 C5 C6 121.68(5) . 3_666 ?
C4 C5 C3 119.68(5) . 3_666 ?
C6 C5 C3 118.63(5) 3_666 3_666 ?
C7 C6 C5 120.95(5) . 3_666 ?
C7 C6 H6 119.5 . . ?
C5 C6 H6 119.5 3_666 . ?
C6 C7 C1 120.41(5) . . ?
C6 C7 H7 119.8 . . ?
C1 C7 H7 119.8 . . ?
 
loop_
 _geom_torsion_atom_site_label_1
 _geom_torsion_atom_site_label_2
 _geom_torsion_atom_site_label_3
 _geom_torsion_atom_site_label_4
 _geom_torsion
 _geom_torsion_site_symmetry_1
 _geom_torsion_site_symmetry_2
 _geom_torsion_site_symmetry_3
 _geom_torsion_site_symmetry_4
 _geom_torsion_publ_flag
C7 C1 C2 C3 0.15(9) . . . . ?
C1 C2 C3 C4 179.59(5) . . . . ?
C1 C2 C3 C5 -1.04(9) . . . 3_666 ?
C2 C3 C4 C5 179.28(5) . . . . ?
C5 C3 C4 C5 -0.09(9) 3_666 . . . ?
C3 C4 C5 C6 -179.53(5) . . . 3_666 ?
C3 C4 C5 C3 0.09(9) . . . 3_666 ?
C5 C6 C7 C1 -0.68(9) 3_666 . . . ?
C2 C1 C7 C6 0.73(10) . . . . ?
 
_refine_diff_density_max    0.411
_refine_diff_density_min   -0.467
_refine_diff_density_rms    0.108

_shelx_res_file
;

    oy3_100.res created by SHELXL-2014/7

TITL oy3_100_a.res in P2(1)/c
REM Old TITL oy3_100 in P2(1)/c
REM SHELXT solution in P2(1)/c
REM R1 0.110, Rweak 0.001, Alpha 0.016, Orientation as input
REM Formula found by SHELXT: C7
CELL 0.71073 9.2877 5.9902 8.4127 90 102.526 90
ZERR 2 0.0008 0.0005 0.0008 0 0.004 0
LATT 1
SYMM -X,0.5+Y,0.5-Z
SFAC C H
UNIT 28 20

L.S. 4
PLAN -20 0 0
SIZE 0.05 0.4 0.5
TEMP -173.15
BOND $H
fmap 2
acta
WPDB -2
CONF
HTAB
OMIT 1 0 0
OMIT -8 1 2
OMIT 5 3 2
OMIT -4 4 2
OMIT -2 4 2
OMIT -7 1 2
OMIT -3 4 2
REM <olex2.extras>
REM <HklSrc "%./oy3_100.hkl">
REM </olex2.extras>

WGHT    0.078100    0.040300
FVAR       1.50594
C1    1    0.131207    0.526420    0.217698    11.00000    0.01266    0.02154 =
         0.01825    0.00089    0.00010    0.00051
AFIX  43
H1    2    0.036846    0.578462    0.162906    11.00000   -1.20000
AFIX   0
C2    1    0.217324    0.656023    0.334698    11.00000    0.01267    0.01574 =
         0.01698    0.00087    0.00202    0.00210
AFIX  43
H2    2    0.181991    0.797318    0.360587    11.00000   -1.20000
AFIX   0
C3    1    0.360030    0.581499    0.418659    11.00000    0.01198    0.01148 =
         0.01250    0.00034    0.00261    0.00051
C4    1    0.450720    0.711483    0.538137    11.00000    0.01288    0.01093 =
         0.01357   -0.00075    0.00300    0.00077
AFIX  43
H4    2    0.417726    0.854327    0.564037    11.00000   -1.20000
AFIX   0
C5    1    0.589499    0.634254    0.620224    11.00000    0.01221    0.01185 =
         0.01170   -0.00030    0.00284   -0.00027
C6    1    0.317136    0.235550    0.256624    11.00000    0.01480    0.01466 =
         0.01446   -0.00256    0.00274   -0.00177
AFIX  43
H6    2    0.349278    0.092790    0.229407    11.00000   -1.20000
AFIX   0
C7    1    0.182197    0.313576    0.177427    11.00000    0.01523    0.02041 =
         0.01577   -0.00190    0.00059   -0.00239
AFIX  43
H7    2    0.122069    0.225457    0.095090    11.00000   -1.20000
AFIX   0
HKLF 4

REM  oy3_100_a.res in P2(1)/c
REM R1 =  0.0524 for    2590 Fo > 4sig(Fo)  and  0.0818 for all    3852 data
REM     64 parameters refined using      0 restraints

END

WGHT      0.0782      0.0403

REM No hydrogen bonds found for HTAB generation

REM Highest difference peak  0.411,  deepest hole -0.467,  1-sigma level  0.108
Q1    1   0.5210  0.6782  0.5767  11.00000  0.05    0.41
Q2    1   0.2492  0.2696  0.2269  11.00000  0.05    0.40
Q3    1   0.4001  0.6495  0.4783  11.00000  0.05    0.33
Q4    1   0.1688  0.5768  0.2878  11.00000  0.05    0.33
Q5    1   0.3951  0.4745  0.3889  11.00000  0.05    0.32
Q6    1   0.1596  0.4235  0.1894  11.00000  0.05    0.31
Q7    1   0.6392  0.6978  0.6821  11.00000  0.05    0.31
Q8    1   0.2801  0.6387  0.3879  11.00000  0.05    0.31
Q9    1   0.4198  0.9946  0.5754  11.00000  0.05    0.24
Q10   1   0.4209  0.7882  0.5931  11.00000  0.05    0.24
Q11   1   0.0258  0.0651  0.0554  11.00000  0.05    0.23
Q12   1   0.0000  0.0000  0.0000  10.50000  0.05    0.23
Q13   1   0.0685  0.0209 -0.0067  11.00000  0.05    0.23
Q14   1   0.4927  1.0551  0.6203  11.00000  0.05    0.23
Q15   1   0.3232  0.6784  0.6627  11.00000  0.05    0.23
Q16   1   0.1061 -0.0025  0.1662  11.00000  0.05    0.23
Q17   1  -0.0592  0.0019 -0.0815  11.00000  0.05    0.23
Q18   1   0.3203 -0.0497  0.2157  11.00000  0.05    0.22
Q19   1   0.3593  0.0277  0.1824  11.00000  0.05    0.22
Q20   1   0.2111  0.7386  0.5834  11.00000  0.05    0.21
;
_shelx_res_checksum   56416

_shelx_hkl_file
;
   0   0  -1    0.20    0.20
   0   0  -1    0.00    0.20
   0   0   1    0.30    0.20
   0   0  -2 2051.69  212.18
   0   0  -2 1810.42  212.28
   0   0   2 1983.00  212.18
   0   0  -3    0.40    0.50
   0   0  -3   -0.20    0.70
   0   0   3   -0.10    0.40
   0   0  -4   11.50    2.20
   0   0  -4   16.40    2.10
   0   0   4   16.50    2.00
   0   0  -5   -1.10    1.50
   0   0  -5   -0.50    0.50
   0   0  -5    0.90    1.00
   0   0  -5   -1.20    0.80
   0   0  -5    0.10    1.00
   0   0   5   -0.10    0.50
   0   0  -5   -0.40    1.20
   0   0  -5    0.10    1.10
   0   0  -6   58.79    7.00
   0   0  -6   48.10    6.90
   0   0  -6   47.40    6.50
   0   0  -6   50.49    9.00
   0   0   6   43.60    5.60
   0   0  -6   49.50    6.40
   0   0  -6   56.39    6.80
   0   0  -7   -0.50    1.20
   0   0   7   -0.70    0.60
   0   0  -7   -2.00    1.00
   0   0   7    0.40    0.70
   0   0  -7    1.20    1.40
   0   0  -7    2.40    3.20
   0   0  -7   -2.10    1.10
   0   0  -7   -1.90    1.60
   0   0  -8    4.20    2.40
   0   0  -8    7.10    2.10
   0   0   8    5.80    1.40
   0   0  -8    8.90    2.60
   0   0  -8    9.60    4.90
   0   0   8    7.10    1.40
   0   0  -8    8.30    3.20
   0   0  -8    4.90    2.40
   0   0   9   -0.50    0.80
   0   0  -9    1.80    2.00
   0   0  -9    0.00    1.60
   0   0  -9    1.30    3.50
   0   0  -9   -3.20    1.60
   0   0  -9    0.90    1.90
   0   0  -9    0.80    2.30
   0   0 -10   19.20    5.50
   0   0 -10   31.00    5.60
   0   0 -10   34.60    6.40
   0   0 -10   26.70    5.50
   0   0 -10   37.20    9.80
   0   0 -10   34.10    5.60
   0   0 -11    2.40    3.10
   0   0 -11   -1.10    2.30
   0   0 -11   -1.50    2.30
   0   0 -11   -2.80    2.10
   0   0 -11   -2.50    3.50
   0   0 -11   -3.10    2.10
   0   0 -12   17.40    4.60
   0   0 -12   11.50    4.50
   0   0 -12   15.00    4.00
   0   0 -12   13.40    7.20
   0   0 -12   11.20    4.70
   0   0 -12    7.90    4.90
   0   0 -13   -1.80    3.60
   0   0 -13    3.50    3.70
   0   0 -13    0.30    2.80
   0   0 -13    1.60    4.20
   0   0 -13   -1.40    4.40
   0   0 -13    1.80    3.80
   0   0 -14   57.49   13.90
   0   0 -14   68.59   10.50
   0   0 -14   33.10    8.30
   0   0 -15   -0.30    4.60
   0   0 -15   -0.70    6.50
   0   0 -15    4.50    5.10
   0   0 -16    0.30    4.80
   0   0 -16    1.20    5.30
   0   0 -16    3.60    8.40
   0   1   0   -0.10    0.20
   0  -1   0    0.30    0.30
   0  -1  -1 1303.47  143.79
   0  -1   1 1337.47  143.79
   0   1  -2  358.26   35.70
   0  -1   2  307.77   35.70
   0  -1  -2  314.27   35.80
   0   1  -3   36.10    3.70
   0   1  -3   28.60    3.90
   0  -1  -3   24.50    3.80
   0  -1   3   31.40    3.60
   0   1  -4  804.62   90.49
   0   1   4  786.72   90.29
   0   1  -4  882.81   90.39
   0  -1  -4  847.82   90.49
   0  -1   4  818.72   90.29
   0   1  -5  637.14   79.29
   0   1  -5  742.33   78.89
   0   1   5  677.63   78.49
   0   1  -5  783.82   78.59
   0   1  -5  637.94   79.09
   0   1  -5  767.92   79.09
   0   1  -5  733.03   80.99
   0  -1  -5  710.13   78.99
   0  -1   5  740.23   78.59
   0  -1  -5  784.52   79.19
   0  -1  -5  781.92   78.89
   0  -1   5  743.13   78.49
   0  -1  -5  716.23   78.99
   0  -1  -5  621.24   79.79
   0   1  -6   13.00    2.80
   0   1   6   13.10    2.00
   0   1  -6   16.90    3.50
   0   1  -6   10.80    4.30
   0   1  -6   11.50    2.50
   0   1  -6   17.40    2.60
   0   1  -6   17.30    3.50
   0   1  -6   14.80    2.80
   0  -1  -6   17.40    3.40
   0  -1  -6   17.70    3.20
   0  -1  -6   13.60    2.50
   0  -1  -6   11.90    2.70
   0  -1  -6   10.40    3.60
   0  -1   6   12.10    2.00
   0  -1   6   16.40    2.30
   0  -1  -6   10.60    2.60
   0   1  -7   40.90    6.70
   0   1   7   36.40    4.60
   0   1  -7   43.20    9.10
   0   1  -7   47.90    6.20
   0   1  -7   45.50    5.50
   0   1  -7   37.00    5.60
   0   1  -7   36.80    5.50
   0   1  -7   34.70    6.00
   0  -1  -7   33.70    5.60
   0  -1  -7   24.80    5.30
   0  -1  -7   45.20    6.30
   0  -1  -7   41.60    6.00
   0  -1   7   40.00    4.80
   0  -1  -7   40.20    5.50
   0  -1  -7   37.00    7.70
   0  -1   7   39.70    4.70
   0   1  -8    8.30    3.10
   0   1  -8    8.80    2.50
   0   1  -8   11.30    3.60
   0   1  -8   12.70    5.70
   0   1   8   11.70    1.80
   0   1  -8    8.90    2.90
   0   1  -8    8.90    2.50
   0  -1  -8   10.40    4.30
   0  -1   8    9.30    1.90
   0  -1   8    8.40    1.70
   0  -1  -8   11.50    2.70
   0  -1  -8   12.40    3.60
   0  -1  -8   11.70    3.00
   0  -1  -8    5.50    2.40
   0  -1  -8    9.90    2.80
   0   1  -9   18.00    4.00
   0   1  -9   27.60    5.00
   0   1  -9   19.20    7.20
   0   1   9   15.50    2.80
   0   1  -9   24.30    4.40
   0   1  -9   18.50    4.80
   0   1  -9   27.20    5.50
   0  -1   9   23.60    3.30
   0  -1  -9   21.50    4.50
   0  -1  -9   18.60    4.30
   0  -1   9   18.50    2.90
   0  -1  -9   17.30    4.90
   0  -1  -9   22.00    4.00
   0  -1  -9   24.30    4.60
   0  -1  -9   20.70    6.40
   0   1 -10  555.14   58.99
   0   1 -10  588.24   59.59
   0   1 -10  480.95   59.39
   0   1 -10  545.15   59.09
   0   1 -10  477.45   59.69
   0   1 -10  497.45   62.99
   0  -1 -10  571.24   59.49
   0  -1 -10  521.55   59.19
   0  -1 -10  530.05   59.49
   0  -1 -10  480.85   59.19
   0  -1 -10  553.04   58.79
   0  -1 -10  520.75   61.99
   0  -1  10  543.35   57.99
   0   1 -11   18.00    4.70
   0   1 -11   11.60    3.90
   0   1 -11   12.50    4.80
   0   1 -11   16.70    7.90
   0   1 -11    9.70    4.40
   0   1 -11   23.20    4.60
   0  -1 -11   18.50    4.90
   0  -1 -11   14.30    6.60
   0  -1 -11   19.90    4.30
   0  -1 -11   19.00    4.90
   0  -1 -11    8.40    3.60
   0  -1 -11   20.20    5.30
   0   1 -12    3.40    6.00
   0   1 -12   -2.70    2.60
   0   1 -12   -6.50    3.20
   0   1 -12    6.30    3.20
   0   1 -12    3.80    3.60
   0  -1 -12    5.40    5.80
   0  -1 -12    1.30    3.60
   0  -1 -12    0.50    3.20
   0  -1 -12    5.60    3.70
   0  -1 -12    4.30    3.20
   0  -1 -12    3.40    3.00
   0   1 -13   -0.70    3.10
   0   1 -13    0.70    3.30
   0   1 -13   -1.10    3.40
   0   1 -13    0.10    5.40
   0  -1 -13   -0.20    2.70
   0  -1 -13    2.40    3.60
   0  -1 -13    0.90    3.40
   0  -1 -13    2.00    4.00
   0  -1 -13   -0.30    4.00
   0  -1 -13   -2.90    4.80
   0   1 -14   30.10   10.70
   0   1 -14   33.60    7.70
   0   1 -14   46.40    8.50
   0  -1 -14   23.90    7.10
   0  -1 -14   25.40   10.20
   0  -1 -14   27.40    7.10
   0  -1 -14   16.80    7.00
   0  -1 -14   34.50    7.20
   0   1 -15    2.00    4.90
   0   1 -15    8.90    5.60
   0   1 -15    6.60    7.10
   0  -1 -15    1.20    4.60
   0  -1 -15   -7.70    4.20
   0  -1 -15   -4.30    6.50
   0   1 -16   -1.90    7.10
   0   1 -16   -5.80    4.30
   0   1 -16   -0.90    4.50
   0  -1 -16    8.40    5.20
   0  -1 -16    5.00    8.60
   0  -1 -16   -1.00    4.40
   0   2   0 1757.82  188.78
   0  -2   0 1710.53  188.78
   0   2   1  146.49   16.40
   0   2  -1  145.59   16.50
   0  -2   1  157.48   16.50
   0   2  -2    2.80    0.70
   0  -2   2    1.90    0.70
   0  -2  -2    1.20    0.70
   0   2  -3   60.59    7.50
   0  -2  -3   68.39    7.60
   0  -2   3   70.49    7.50
   0   2  -4   45.90    5.70
   0   2  -4   42.80    5.40
   0   2  -4   41.50    5.20
   0   2  -4   40.20    6.50
   0  -2  -4   48.20    5.40
   0  -2  -4   54.19    6.20
   0  -2   4   40.60    5.20
   0  -2   4   40.70    5.40
   0  -2  -4   49.70    6.30
   0  -2  -4   42.60    5.40
   0   2  -5   98.59   11.40
   0   2  -5   87.39   10.80
   0   2  -5  101.19   13.60
   0   2  -5  112.29   11.50
   0   2  -5   98.29   11.10
   0   2  -5   93.09   11.80
   0  -2  -5   97.99   11.00
   0  -2  -5  102.09   11.00
   0  -2  -5   79.09   11.10
   0  -2  -5   92.99   11.30
   0  -2   5   92.89   10.70
   0  -2  -5   90.89   11.80
   0  -2  -5   94.39   11.30
   0  -2   5   95.79   11.00
   0   2  -6   70.99    9.60
   0   2  -6   71.09    9.40
   0   2  -6   83.69   14.10
   0   2  -6   79.29   11.10
   0   2  -6   80.19    9.30
   0   2  -6   77.99    9.20
   0   2   6   79.89    9.00
   0   2  -6   80.39    9.90
   0  -2  -6   73.69    9.70
   0  -2  -6   80.19   10.60
   0  -2  -6   90.39    9.90
   0  -2   6   76.79    9.00
   0  -2   6   79.59    9.30
   0  -2  -6   76.29    9.80
   0  -2  -6   74.19    9.40
   0  -2  -6   88.69    9.50
   0   2  -7    3.40    1.30
   0   2  -7    0.50    1.30
   0   2  -7    5.50    2.50
   0   2  -7    1.40    1.40
   0   2  -7    0.00    1.80
   0   2  -7    4.00    2.10
   0   2   7    0.70    0.90
   0   2  -7    1.10    3.40
   0  -2  -7    2.90    1.80
   0  -2   7    2.90    1.30
   0  -2   7    3.90    1.10
   0  -2  -7    3.20    2.00
   0  -2  -7    3.80    2.80
   0  -2  -7    2.60    2.00
   0  -2  -7    3.20    1.60
   0  -2  -7    5.60    2.10
   0   2   8    9.00    1.70
   0   2  -8   12.00    3.20
   0   2  -8    7.30    2.30
   0   2  -8    1.80    2.60
   0   2  -8    7.70    2.20
   0   2  -8    7.30    3.20
   0   2  -8    4.80    2.30
   0   2  -8   12.50    5.70
   0  -2  -8    6.20    2.70
   0  -2   8    7.70    1.70
   0  -2  -8   12.40    3.00
   0  -2  -8    9.40    3.00
   0  -2  -8   10.70    4.60
   0  -2  -8    9.50    3.30
   0  -2   8    7.60    2.00
   0  -2  -8    7.10    2.40
   0   2  -9   72.69    8.80
   0   2  -9   71.59    9.20
   0   2  -9   69.39    9.20
   0   2  -9   56.89   10.20
   0   2  -9   68.39   10.20
   0   2  -9   52.19    9.00
   0   2  -9   58.39   13.60
   0  -2  -9   69.19    9.30
   0  -2  -9   64.09    9.70
   0  -2   9   61.39    7.90
   0  -2   9   64.99    7.70
   0  -2  -9   59.89    9.20
   0  -2  -9   66.89    9.70
   0  -2  -9   62.49    8.60
   0  -2  -9   63.69   11.50
   0   2 -10  158.68   21.20
   0   2 -10  165.88   25.10
   0   2 -10  173.78   20.70
   0   2 -10  200.28   21.50
   0   2 -10  145.29   21.40
   0   2 -10  175.88   20.80
   0  -2 -10  176.38   21.10
   0  -2  10  171.98   19.90
   0  -2 -10  179.18   23.20
   0  -2 -10  179.08   21.00
   0  -2 -10  182.88   21.10
   0  -2 -10  178.08   20.50
   0  -2 -10  189.98   21.40
   0   2 -11  126.39   18.40
   0   2 -11   97.39   18.20
   0   2 -11  136.69   17.70
   0   2 -11  126.99   23.40
   0  -2 -11  145.49   17.40
   0  -2 -11  169.28   20.90
   0  -2  11  133.39   16.00
   0  -2 -11  160.38   17.90
   0  -2 -11  140.59   17.40
   0  -2 -11  151.98   16.90
   0  -2 -11  132.79   17.50
   0   2 -12   11.60    3.80
   0   2 -12    7.10    4.10
   0   2 -12   10.10    7.60
   0   2 -12    5.40    4.20
   0  -2  12   15.60    3.10
   0  -2 -12    8.60    4.30
   0  -2 -12    9.90    3.50
   0  -2 -12   13.90    4.80
   0  -2 -12    6.20    6.10
   0  -2 -12   10.40    4.70
   0  -2 -12   13.80    4.70
   0   2 -13    1.00    3.40
   0   2 -13    1.40    6.00
   0   2 -13    4.10    4.10
   0   2 -13    7.70    4.80
   0  -2 -13   11.00    5.10
   0  -2 -13    6.00    4.60
   0  -2 -13    9.20    3.60
   0  -2 -13    6.60    6.80
   0  -2 -13    4.50    4.10
   0  -2 -13   11.90    5.00
   0   2 -14  105.69   21.20
   0   2 -14  187.78   23.00
   0  -2 -14  204.58   26.00
   0  -2 -14  155.68   21.80
   0  -2 -14  183.88   21.00
   0  -2 -14  143.69   21.30
   0  -2 -14  185.08   21.50
   0   2 -15   58.99   12.30
   0   2 -15   61.39   12.40
   0   2 -15   60.49   15.80
   0  -2 -15   94.49   13.20
   0  -2 -15   92.59   17.90
   0  -2 -15   68.29   14.20
   0  -2 -15  110.59   13.30
   0   2 -16    2.80    5.40
   0   2 -16    6.30    5.40
   0   2 -16    3.10    7.90
   0  -2 -16   -5.40    9.30
   0  -2 -16   -0.70    5.20
   0  -2 -16    7.60    4.90
   0   3   0    0.30    0.50
   0  -3   0   -0.30    0.50
   0   3   1  501.85   54.29
   0  -3   1  491.15   54.29
   0   3  -2   18.70    3.20
   0  -3  -2   20.70    3.20
   0   3  -3   47.30    6.40
   0   3   3   47.20    5.60
   0   3  -3   45.20    7.40
   0  -3   3   45.40    6.30
   0  -3  -3   56.19    5.70
   0  -3  -3   45.90    6.40
   0  -3   3   42.90    6.00
   0  -3   3   48.00    5.70
   0   3  -4  313.47   39.30
   0   3  -4  371.86   39.00
   0   3  -4  365.86   39.50
   0   3  -4  372.76   40.30
   0   3  -4  348.27   39.90
   0  -3   4  369.56   39.30
   0  -3   4  346.87   38.90
   0  -3   4  355.76   39.40
   0  -3  -4  348.47   39.10
   0  -3  -4  357.76   39.50
   0   3  -5    2.20    2.00
   0   3   5    1.60    0.90
   0   3  -5    1.20    0.80
   0   3  -5    1.50    0.90
   0   3  -5    0.60    0.90
   0   3  -5    0.90    1.70
   0  -3   5    2.50    1.60
   0  -3  -5    0.10    1.00
   0  -3  -5    1.70    1.20
   0  -3   5    0.60    1.20
   0  -3  -5    1.80    1.20
   0  -3  -5    2.00    1.60
   0  -3   5   -0.50    0.70
   0  -3  -5    3.30    1.60
   0  -3  -5    4.30    3.00
   0   3  -6  114.69   13.60
   0   3   6  110.79   13.30
   0   3  -6  104.39   14.20
   0   3  -6  114.59   13.60
   0   3  -6  133.99   17.40
   0   3  -6  109.49   14.80
   0   3  -6  124.99   13.90
   0  -3  -6  125.79   14.40
   0  -3  -6  113.99   13.70
   0  -3   6  121.19   13.50
   0  -3  -6  133.19   14.10
   0  -3   6  119.89   14.00
   0  -3   6  117.99   13.80
   0  -3  -6  106.79   14.10
   0  -3  -6  137.79   13.80
   0   3  -7    1.50    2.40
   0   3  -7    5.10    2.00
   0   3   7    4.60    1.30
   0   3  -7    0.90    2.00
   0   3  -7    0.90    1.40
   0   3  -7    3.00    1.30
   0   3  -7    2.30    3.50
   0  -3  -7    0.20    1.90
   0  -3  -7    5.20    3.30
   0  -3  -7    2.70    1.80
   0  -3   7    2.30    1.10
   0  -3   7    1.30    2.10
   0  -3  -7    2.40    2.10
   0  -3   7    1.20    1.40
   0  -3  -7    1.60    1.70
   0  -3  -7    2.30    1.40
   0   3  -8    5.60    4.50
   0   3   8   -0.30    1.00
   0   3  -8    1.10    2.20
   0   3  -8    3.00    2.60
   0   3  -8    1.40    1.30
   0   3  -8   -0.10    1.40
   0   3  -8    0.40    1.60
   0  -3  -8   -0.80    1.80
   0  -3   8    1.60    1.50
   0  -3  -8    3.20    3.90
   0  -3  -8    1.10    2.00
   0  -3  -8    3.90    1.80
   0  -3   8    1.40    1.20
   0  -3  -8   -1.20    1.90
   0  -3  -8    3.50    2.30
   0   3  -9   22.50    4.30
   0   3  -9   14.00    5.00
   0   3  -9   23.30    8.30
   0   3  -9   19.10    4.50
   0   3  -9   28.10    5.70
   0  -3  -9   29.40    4.70
   0  -3  -9   24.50    5.10
   0  -3  -9   25.50    5.00
   0  -3   9   28.80    3.80
   0  -3   9   30.90    4.50
   0  -3  -9   22.80    6.60
   0  -3  -9   30.00    4.60
   0  -3  -9   26.10    5.20
   0   3 -10   15.40    5.40
   0   3 -10   19.40    8.60
   0   3 -10   24.10    5.60
   0   3 -10   26.60    5.10
   0  -3 -10   29.20    5.40
   0  -3 -10   17.60    4.80
   0  -3 -10   23.90    5.30
   0  -3  10   18.40    3.80
   0  -3 -10   20.60    4.20
   0  -3 -10   26.30    7.20
   0  -3 -10   23.90    4.90
   0   3 -11   89.39   12.60
   0   3 -11   61.49   15.80
   0   3 -11   62.09   12.30
   0   3 -11   67.69   11.10
   0  -3 -11   74.99   11.80
   0  -3 -11   82.39   12.10
   0  -3  11   87.69   10.10
   0  -3 -11   87.89   11.10
   0  -3 -11   78.69   11.70
   0  -3 -11   80.79   10.80
   0  -3 -11  100.49   15.60
   0   3 -12    7.80    6.90
   0   3 -12    5.10    4.40
   0   3 -12   10.00    4.60
   0   3 -12    1.30    3.10
   0  -3 -12    7.90    4.10
   0  -3  12    4.30    2.10
   0  -3 -12    5.30    4.20
   0  -3 -12    7.90    3.60
   0  -3 -12    4.90    3.70
   0  -3 -12    6.50    2.90
   0  -3 -12    6.10    6.80
   0   3 -13   10.40    4.10
   0   3 -13    5.30    7.20
   0   3 -13    3.30    3.80
   0   3 -13   12.60    5.50
   0  -3 -13   15.20    8.80
   0  -3 -13    6.50    4.20
   0  -3 -13    3.20    3.80
   0  -3 -13    1.50    3.10
   0  -3 -13    3.90    4.20
   0  -3  13    8.60    2.40
   0   3 -14   22.60   10.40
   0   3 -14   19.30    7.30
   0   3 -14   37.10    7.60
   0  -3 -14   30.10    6.90
   0  -3 -14   50.59    7.90
   0  -3 -14   61.29   14.80
   0  -3 -14   35.80    7.60
   0   3 -15    5.20    4.40
   0   3 -15   -4.70    5.20
   0   3 -15    2.30    4.00
   0  -3 -15    0.90    4.00
   0  -3 -15    5.90    4.60
   0  -3 -15   -7.00    9.10
   0  -3 -15    0.20    3.90
   0   4   0    4.90    1.70
   0   4   0    1.40    1.00
   0   4   0    2.70    1.30
   0  -4   0    3.40    1.50
   0  -4   0    1.60    0.80
   0  -4   0    2.80    1.40
   0  -4   0    1.80    1.10
   0   4  -1  314.37   37.70
   0   4  -1  355.16   37.20
   0   4  -1  334.47   37.50
   0   4   1  345.47   37.30
   0   4   1  320.57   37.40
   0  -4   1  331.97   37.50
   0  -4   1  345.17   37.10
   0  -4  -1  346.07   37.50
   0  -4   1  337.17   37.60
   0  -4  -1  339.47   37.40
   0   4  -2  137.59   15.20
   0   4  -2  134.39   15.60
   0   4   2  129.69   15.40
   0   4  -2  137.69   15.90
   0  -4   2  129.79   15.10
   0  -4   2  138.29   15.80
   0  -4   2  130.89   15.50
   0  -4  -2  138.59   15.40
   0  -4  -2  145.39   15.70
   0   4   3  137.19   15.20
   0   4  -3  142.39   15.50
   0   4  -3  129.19   15.00
   0   4  -3  125.59   15.70
   0  -4   3  132.29   15.00
   0  -4   3  129.39   15.40
   0  -4  -3  135.79   15.10
   0  -4   3  137.89   15.70
   0  -4  -3  135.99   15.60
   0   4  -4  900.01   99.89
   0   4   4  916.31   98.89
   0   4  -4  826.62   99.09
   0   4  -4  914.51   98.79
   0   4  -4  951.90   99.29
   0   4  -4  902.31   99.49
   0  -4  -4  897.71   99.19
   0  -4  -4  982.80   98.79
   0  -4  -4  887.71   99.39
   0  -4   4  900.31   99.39
   0  -4   4  862.51   98.79
   0  -4  -4  880.11   98.59
   0  -4   4  919.61   99.29
   0   4  -5   79.89    9.70
   0   4  -5   79.79    8.90
   0   4  -5   73.89    9.50
   0   4  -5   82.09   10.30
   0   4   5   81.49    9.00
   0  -4   5   69.99    8.90
   0  -4   5   72.79    9.60
   0  -4  -5   83.39   10.40
   0  -4   5   75.49    9.40
   0  -4  -5   62.39    8.80
   0  -4  -5   86.69    9.00
   0  -4  -5   74.39    9.50
   0   4  -6   77.29    9.20
   0   4   6   74.39    8.80
   0   4  -6   75.69   10.20
   0   4  -6   73.49    9.00
   0   4  -6   73.49   11.30
   0   4  -6   73.49    9.00
   0  -4   6   70.29    8.90
   0  -4  -6   90.09    9.10
   0  -4  -6   73.09    9.10
   0  -4   6   62.49    9.50
   0  -4  -6   80.19    9.70
   0  -4  -6   71.59   10.20
   0  -4   6   83.79   10.20
   0   4  -7   41.20    6.10
   0   4  -7   45.30   10.40
   0   4  -7   44.10    7.80
   0   4  -7   42.20    5.60
   0   4  -7   39.20    6.60
   0  -4   7   35.90    5.20
   0  -4   7   36.20    5.80
   0  -4   7   41.70    6.30
   0  -4  -7   34.60    5.80
   0  -4  -7   44.90    5.50
   0  -4  -7   33.30    6.50
   0  -4  -7   54.99    9.00
   0  -4  -7   30.10    6.00
   0  -4  -7   38.40    5.70
   0   4  -8   -0.80    2.60
   0   4  -8    1.60    1.50
   0   4  -8    0.30    4.30
   0   4  -8    1.50    1.90
   0   4  -8    2.80    2.60
   0  -4   8    2.00    1.70
   0  -4  -8    0.80    2.00
   0  -4  -8    4.50    2.50
   0  -4  -8    3.30    1.90
   0  -4  -8    7.40    3.10
   0  -4   8   -1.40    1.20
   0  -4  -8    3.00    1.80
   0   4  -9   30.50    7.40
   0   4  -9   43.20   11.80
   0   4  -9   34.70    6.40
   0   4  -9   50.29    7.80
   0  -4  -9   39.90    6.20
   0  -4  -9   44.70    6.30
   0  -4   9   42.30    5.70
   0  -4  -9   42.30    6.80
   0  -4  -9   51.89   10.00
   0  -4   9   34.90    6.00
   0  -4  -9   45.30    7.90
   0  -4  -9   37.50    7.00
   0   4 -10   18.70    5.00
   0   4 -10   31.50    7.20
   0   4 -10   22.70    5.70
   0   4 -10   30.20   10.30
   0  -4 -10   22.30    5.80
   0  -4 -10   19.60    5.10
   0  -4  10   21.80    4.50
   0  -4 -10   44.60    9.60
   0  -4 -10   22.40    4.50
   0  -4 -10   36.10    5.40
   0   4 -11   17.40    5.70
   0   4 -11   14.30    4.70
   0   4 -11    9.70    4.20
   0   4 -11    8.10    6.90
   0  -4 -11   25.90    9.10
   0  -4 -11   20.80    4.80
   0  -4 -11   18.60    4.40
   0  -4  11   14.90    3.50
   0  -4 -11   20.10    4.00
   0  -4 -11   12.10    4.80
   0   4 -12   -1.20    3.50
   0   4 -12    1.20    3.20
   0   4 -12    0.10    3.10
   0   4 -12    3.00    6.30
   0  -4 -12    1.10    3.10
   0  -4 -12    4.00    8.60
   0  -4 -12    0.40    2.70
   0  -4  12   -0.80    2.10
   0  -4 -12    4.70    3.20
   0  -4 -12    2.20    3.50
   0   4 -13   -2.80    5.00
   0   4 -13   -3.10    2.50
   0   4 -13   -0.50    4.30
   0  -4 -13   -0.20    3.30
   0  -4 -13   -0.50    3.20
   0  -4  13    1.60    2.10
   0  -4 -13   -1.50    3.60
   0  -4 -13   -3.20    8.80
   0   4 -14    0.30    3.50
   0   4 -14    5.10    6.70
   0   4 -14   -2.30    4.00
   0  -4 -14    8.00    4.00
   0  -4 -14   -4.90    9.80
   0  -4 -14    6.90    4.30
   0  -4  14    5.50    2.90
   0  -4 -14    0.70    3.90
   0   4 -15    0.30    4.60
   0   4 -15   -1.00    6.50
   0   4 -15   -0.40    3.50
   0  -4 -15  -11.70    9.80
   0  -4 -15    2.70    3.60
   0  -4 -15   -4.50    4.80
   0  -4 -15    3.00    4.30
   0   5   0   -0.10    1.30
   0   5   0   -1.10    1.60
   0   5   0    0.50    0.80
   0  -5   0    1.00    1.20
   0  -5   0   -0.90    1.20
   0   5   1   18.90    3.60
   0   5  -1   29.90    3.90
   0   5   1   23.60    4.00
   0   5  -1   19.00    4.00
   0   5   1   25.40    4.60
   0   5  -1   23.60    4.50
   0  -5   1   22.60    4.10
   0  -5  -1   31.80    4.10
   0  -5   1   22.80    4.20
   0  -5  -1   25.80    4.00
   0  -5  -1   37.30    3.70
   0  -5   1   28.60    3.60
   0  -5  -1   23.60    4.00
   0   5   2    3.60    2.00
   0   5   2    4.00    1.60
   0   5  -2    2.50    1.60
   0   5   2    2.70    1.50
   0   5  -2    2.90    1.20
   0   5  -2    7.20    2.30
   0  -5  -2    3.70    1.50
   0  -5  -2    4.80    1.80
   0  -5   2    2.10    1.70
   0  -5  -2    4.80    1.50
   0  -5   2    2.60    1.60
   0  -5   2    2.20    1.10
   0   5  -3  312.87   34.30
   0   5  -3  330.87   35.30
   0   5  -3  341.27   35.00
   0   5   3  313.67   34.60
   0  -5  -3  296.47   34.40
   0  -5  -3  313.17   34.50
   0  -5   3  303.37   34.30
   0  -5   3  298.77   34.80
   0  -5  -3  288.57   34.80
   0  -5   3  313.67   35.00
   0   5  -4  293.97   31.40
   0   5  -4  278.47   30.70
   0   5   4  273.17   31.00
   0   5  -4  281.07   31.70
   0   5  -4  283.17   32.10
   0  -5  -4  275.47   31.20
   0  -5   4  262.87   31.50
   0  -5  -4  271.37   30.60
   0  -5   4  285.37   30.80
   0  -5   4  285.97   31.30
   0  -5  -4  260.07   31.40
   0   5  -5    4.40    1.30
   0   5  -5    4.40    2.20
   0   5   5    3.60    1.50
   0   5  -5    4.30    2.90
   0  -5   5   -3.30    1.80
   0  -5  -5    4.10    2.40
   0  -5  -5    2.60    5.40
   0  -5  -5    4.00    1.40
   0  -5   5    3.50    1.40
   0  -5   5    0.60    1.60
   0   5  -6  193.28   23.30
   0   5  -6  186.58   24.20
   0   5  -6  193.68   23.10
   0   5   6  196.28   22.80
   0   5  -6  201.18   22.80
   0  -5  -6  210.18   22.80
   0  -5  -6  206.68   23.80
   0  -5   6  209.18   23.40
   0  -5   6  220.38   23.70
   0  -5   6  209.38   22.80
   0   5  -7   70.79   14.50
   0   5  -7   42.40    9.70
   0   5  -7   62.29    9.00
   0   5  -7   65.89    8.70
   0   5  -7   61.89    9.40
   0  -5  -7   68.29   10.00
   0  -5   7   56.69    8.20
   0  -5   7   73.19    9.80
   0  -5   7   75.79    9.40
   0  -5  -7  109.89   13.00
   0  -5  -7   67.19    8.20
   0   5  -8   55.49   12.90
   0   5  -8   56.79    8.90
   0   5  -8   42.90    9.20
   0   5  -8   47.40    8.10
   0   5  -8   68.59    8.30
   0  -5  -8   67.59    7.60
   0  -5   8   68.59    9.30
   0  -5  -8   47.70    8.80
   0  -5   8   61.89    8.40
   0   5  -9   38.00   11.70
   0   5  -9   36.60    7.30
   0   5  -9   42.60    7.10
   0   5  -9   28.00    8.20
   0  -5   9   42.90    6.90
   0  -5  -9   78.39   13.00
   0  -5  -9   50.49    8.30
   0  -5  -9   51.79    6.70
   0   5 -10    5.80    3.10
   0   5 -10    1.40    2.80
   0   5 -10    6.60    6.10
   0   5 -10    7.00    4.10
   0  -5 -10    4.50    3.30
   0  -5 -10   11.10    9.20
   0  -5  10   -0.10    2.00
   0  -5 -10    1.20    2.10
   0   5 -11   27.60   10.70
   0   5 -11   24.50    7.30
   0   5 -11   27.20    6.30
   0   5 -11   18.20    5.60
   0  -5 -11   29.60    6.50
   0  -5 -11   33.80    5.50
   0  -5 -11   65.89   13.60
   0  -5  11   27.90    5.30
   0   5 -12    7.70    6.70
   0   5 -12   10.60    7.20
   0   5 -12    3.10    3.60
   0   5 -12    5.30    3.40
   0  -5 -12    9.10    3.40
   0  -5 -12    1.80    3.80
   0  -5  12    5.60    2.80
   0  -5 -12   11.60   10.60
   0   5 -13   15.20    8.60
   0   5 -13   22.90    5.50
   0   5 -13   12.10    6.00
   0  -5 -13   47.20   14.10
   0  -5 -13   17.30    5.70
   0  -5  13   16.60    4.20
   0  -5 -13   29.70    5.20
   0   5 -14   19.40    5.70
   0   5 -14   20.80   10.20
   0   5 -14   19.30    6.80
   0  -5  14   28.30    4.80
   0  -5 -14   22.20   12.60
   0  -5 -14   19.00    6.50
   0  -5 -14   44.50    6.40
   0  -5 -15   -5.60   11.00
   0  -5 -15    7.80    3.50
   0   6   0    3.20    1.60
   0   6   0    6.30    2.20
   0   6   0    6.20    2.80
   0  -6   0    3.80    1.90
   0  -6   0    2.80    1.80
   0   6   1   27.00    5.10
   0   6  -1   22.20    4.40
   0   6   1   22.40    4.20
   0   6  -1   25.70    4.00
   0   6   1   28.00    4.30
   0   6  -1   28.00    5.20
   0  -6  -1   40.90    4.40
   0  -6  -1   21.80    4.20
   0  -6   1   29.20    4.40
   0  -6  -1   32.00    4.40
   0  -6   1   23.40    4.40
   0  -6  -1   23.90    4.10
   0   6  -2   37.00    5.60
   0   6   2   36.20    6.10
   0   6  -2   51.79    6.80
   0   6   2   51.99    6.30
   0   6   2   52.29    7.20
   0   6  -2   47.80    7.20
   0  -6  -2   39.30    6.20
   0  -6  -2   55.89    6.50
   0  -6   2   35.80    6.30
   0  -6  -2   40.60    6.00
   0  -6   2   44.40    6.40
   0  -6   2   43.20    5.60
   0   6  -3   35.50    4.90
   0   6   3   32.00    5.30
   0   6   3   31.60    5.20
   0   6  -3   40.30    6.10
   0   6  -3   31.00    6.00
   0  -6  -3   33.90    5.10
   0  -6  -3   38.20    5.80
   0  -6   3   39.60    5.70
   0  -6   3   45.50    5.10
   0  -6   3   41.10    6.30
   0   6  -4   82.69   10.40
   0   6  -4   68.19    8.10
   0   6  -4   70.29   10.60
   0   6   4   75.19    8.60
   0   6  -4   87.69    9.90
   0  -6   4   66.69    8.20
   0  -6   4   59.19    9.30
   0  -6  -4   70.29    9.60
   0  -6   4   58.79    9.00
   0  -6  -4   62.39    8.00
   0   6  -5    1.30    2.70
   0   6  -5    0.40    1.10
   0   6  -5    3.70    2.90
   0   6   5    1.20    1.60
   0  -6   5    0.90    2.30
   0  -6  -5   -1.20    1.70
   0  -6   5   -0.90    1.20
   0  -6   5   -1.70    1.70
   0   6  -6  345.37   37.40
   0   6   6  341.07   37.10
   0   6  -6  347.17   37.00
   0   6  -6  285.07   38.50
   0  -6  -6  317.87   37.90
   0  -6   6  354.46   38.10
   0  -6   6  328.47   37.70
   0   6   7  329.57   37.10
   0   6  -7  335.57   37.20
   0   6  -7  312.77   37.40
   0   6  -7  305.47   38.90
   0  -6   7  351.86   38.20
   0  -6  -7  366.96   38.50
   0  -6   7  338.87   37.80
   0   6  -8   13.40    6.70
   0   6  -8   12.60    3.70
   0   6  -8    8.90    4.60
   0  -6  -8    9.20    3.80
   0  -6   8    5.80    3.20
   0  -6  -8   37.30    9.70
   0  -6   8   24.70    5.00
   0  -6  -8   11.00    2.70
   0   6  -9    0.40    4.50
   0   6  -9   -1.20    3.00
   0   6  -9    3.00    2.80
   0  -6  -9    2.90    3.70
   0  -6  -9    0.20    1.90
   0  -6   9   -0.70    2.20
   0  -6  -9   -2.10    8.00
   0  -6   9    1.00    4.70
   0   6 -10   -1.90    2.40
   0   6 -10   -0.30    2.60
   0   6 -10   -2.10    4.90
   0  -6 -10   -3.20    3.00
   0  -6  10    7.10    3.00
   0  -6 -10    1.70    2.20
   0  -6 -10   -2.70    8.50
   0   6 -11    3.70    3.80
   0   6 -11   10.70    4.90
   0   6 -11    4.30    6.20
   0  -6 -11   10.80   10.30
   0  -6 -11    9.40    3.10
   0  -6 -11   13.70    5.10
   0  -6  11    0.00    2.50
   0   6 -12   11.10    7.70
   0   6 -12   10.60    5.70
   0  -6  12   10.40    3.60
   0  -6 -12   12.80    3.80
   0  -6 -12   20.10    6.00
   0  -6 -12   24.20   12.10
   0   6 -13    8.60    8.20
   0   6 -13    1.40    4.40
   0  -6 -13   16.30    4.20
   0  -6 -13   31.90   12.40
   0  -6  13    9.50    3.40
   0  -6 -13   10.20    5.10
   0   6 -14   -5.70    5.80
   0   6 -14   -0.90    4.50
   0  -6 -14    0.10   11.40
   0  -6  14   -0.30    2.50
   0  -6 -14   -0.70    4.00
   0  -6 -14    5.60    3.10
   0   7   0    0.70    2.60
   0   7   0   -2.00    1.20
   0   7   0    0.20    2.00
   0  -7   0   -1.30    1.60
   0  -7   0   -0.20    1.80
   0  -7   0    1.50    1.80
   0   7   1   16.20    3.60
   0   7  -1   14.40    3.10
   0   7  -1   15.70    3.70
   0   7   1   14.70    4.20
   0   7   1   14.40    3.10
   0   7  -1   19.20    4.80
   0  -7   1   23.50    4.00
   0  -7  -1   16.80    3.60
   0  -7   1   20.90    4.20
   0   7   2   15.40    4.40
   0   7  -2   33.00    5.00
   0   7   2   21.80    4.00
   0   7  -2   14.50    4.40
   0   7  -2   19.60    3.30
   0   7   2   21.40    3.80
   0  -7  -2   25.30    4.00
   0  -7   2   19.10    4.30
   0  -7   2   15.60    3.60
   0  -7  -2   15.90    3.60
   0   7   3  225.98   25.90
   0   7  -3  227.68   26.80
   0   7  -3  225.18   25.40
   0   7  -3  223.88   26.30
   0   7   3  229.98   25.90
   0  -7   3  244.38   26.20
   0  -7  -3  206.68   25.90
   0  -7   3  224.68   26.40
   0  -7  -3  226.38   25.60
   0   7  -4   49.99    9.10
   0   7   4   46.60    7.10
   0   7  -4   55.89    6.70
   0   7  -4   65.09    9.20
   0   7   4   47.20    7.10
   0  -7   4   45.80    7.70
   0  -7  -4   40.90    7.30
   0  -7  -4   51.79    6.30
   0  -7   4   46.90    7.20
   0   7   5   -1.30    1.60
   0   7  -5    1.40    1.30
   0   7  -5    2.00    3.00
   0   7   5    4.20    2.20
   0  -7  -5    1.30    2.30
   0  -7   5   -3.20    1.90
   0  -7   5    3.10    2.40
   0   7   6   25.50    4.10
   0   7  -6   21.50    5.80
   0   7  -6   23.50    3.80
   0   7   6   14.90    4.10
   0  -7   6   20.40    4.90
   0  -7  -6   19.70    5.00
   0  -7   6   19.80    4.40
   0   7  -7   91.19   11.80
   0   7  -7   68.29   13.00
   0   7   7   88.19   10.80
   0   7  -7   85.39   11.20
   0  -7   7   85.79   12.30
   0  -7  -7  109.89   13.40
   0  -7   7   92.79   12.10
   0   7  -8   41.70    9.00
   0   7  -8   41.10    7.20
   0   7  -8   37.20   12.20
   0  -7  -8   61.79    8.70
   0  -7   8   35.80    7.00
   0  -7   8   58.39    8.60
   0   7  -9    6.30    3.50
   0   7  -9    8.10    7.10
   0   7  -9    4.50    4.00
   0  -7   9    5.90    3.40
   0  -7   9   11.90    4.50
   0  -7  -9   10.80    4.40
   0   7 -10   -3.30    4.80
   0   7 -10    7.70    5.00
   0  -7  10    2.90    2.70
   0  -7 -10    4.20    4.30
   0   7 -11   -1.90    4.90
   0   7 -11   -4.50    3.40
   0  -7  11   -1.30    2.60
   0  -7 -11    0.30    4.00
   0   7 -12    5.70    7.00
   0   7  12    5.70    3.30
   0   7 -12    0.10    4.30
   0  -7  12    5.80    3.20
   0  -7 -12    2.90    4.10
   0   7 -13   -0.10    6.40
   0   7 -13    3.70    4.60
   0   7  13    5.00    3.20
   0  -7  13    1.10    2.70
   0  -7 -13   -0.30    3.90
   0   8   0   -2.30    2.20
   0   8   0   -1.30    2.80
   0   8   0    1.60    1.70
   0  -8   0   -1.80    1.80
   0   8  -1    7.30    3.40
   0   8   1    5.20    2.00
   0   8  -1    0.60    1.60
   0   8   1    4.20    2.40
   0   8   1    2.10    3.10
   0   8  -1    1.40    2.60
   0  -8   1    4.70    2.50
   0  -8   1    0.70    2.00
   0  -8  -1    0.20    2.10
   0   8   2   27.50    5.30
   0   8   2   29.00    4.90
   0   8  -2   35.40    6.60
   0   8  -2   29.00    4.60
   0   8  -2   34.40    5.80
   0  -8   2   30.90    5.40
   0  -8  -2   24.20    4.80
   0  -8   2   30.10    5.90
   0   8  -3   11.90    2.60
   0   8   3   13.70    3.30
   0   8   3   11.40    3.10
   0   8  -3    7.60    4.00
   0  -8   3    6.40    3.00
   0  -8  -3   10.20    2.60
   0  -8   3    7.40    3.50
   0   8  -4    2.60    3.40
   0   8  -4    0.00    1.30
   0   8  -4    1.90    3.10
   0   8   4    0.30    2.10
   0   8   4    1.00    2.10
   0  -8   4    1.30    2.60
   0  -8   4    2.20    2.60
   0  -8  -4   -1.00    2.00
   0   8   5   -3.70    1.90
   0   8  -5    2.90    3.20
   0   8   5   -2.40    1.70
   0   8  -5    0.30    1.50
   0  -8   5   -0.30    2.20
   0  -8  -5    1.80    2.50
   0  -8   5    3.00    2.90
   0   8  -6    8.20    4.90
   0   8   6   18.70    3.90
   0   8   6   22.90    4.50
   0   8  -6   14.70    3.40
   0  -8  -6   27.70    5.50
   0  -8   6   31.20    5.40
   0  -8   6   23.50    5.30
   0   8   7  149.09   17.90
   0   8  -7  141.39   21.10
   0   8  -7  141.89   17.90
   0   8   7  143.79   17.40
   0  -8  -7  156.78   18.70
   0  -8   7  149.39   18.30
   0  -8   7  151.98   18.80
   0   8  -8   70.19   14.60
   0   8  -8   88.09   19.70
   0   8   8  112.09   13.50
   0   8  -8  118.59   13.90
   0  -8   8  115.79   14.60
   0  -8   8   95.29   13.50
   0  -8  -8   95.69   14.10
   0   8  -9    5.20    7.00
   0   8   9    3.60    3.00
   0   8  -9    4.20    4.20
   0  -8   9    9.90    4.30
   0  -8   9   13.40    4.10
   0  -8  -9    5.30    4.10
   0   8 -10   -3.80    3.50
   0   8  10    3.30    2.50
   0   8 -10    3.90    6.10
   0  -8  10   -0.50    2.80
   0  -8 -10    0.10    3.70
   0   8 -11    3.10    6.80
   0   8  11    9.80    3.30
   0   8 -11    1.60    4.50
   0  -8  11    4.10    3.30
   0  -8 -11    7.20    4.60
   0   8 -12    2.90    7.40
   0   8  12    5.90    3.10
   0   8 -12    0.80    5.10
   0  -8 -12   14.40    5.70
   0  -8  12    4.90    3.50
   0   9   0   -0.40    1.90
   0   9   0    1.80    2.60
   0   9   0   -1.80    3.10
   0  -9   0   -1.20    2.30
   0   9  -1   15.90    4.90
   0   9  -1    4.90    3.50
   0   9  -1    9.30    2.80
   0   9   1    3.60    3.10
   0   9   1   14.30    4.60
   0   9   1   13.10    3.30
   0  -9   1    6.70    3.30
   0  -9  -1   13.50    3.70
   0   9   2   92.79   11.70
   0   9  -2  100.29   13.10
   0   9   2   76.79   10.70
   0   9  -2   78.29   10.40
   0  -9  -2   91.19   11.00
   0  -9   2   61.59   10.60
   0  -9   2   74.69   11.60
   0   9   3   23.30    4.70
   0   9   3   15.60    4.30
   0   9  -3   24.30    4.10
   0  -9  -3   19.90    4.10
   0  -9   3   23.00    4.90
   0  -9   3   29.40    5.70
   0   9  -4   -0.70    1.80
   0   9   4   -3.10    1.80
   0   9  -4    4.80    4.10
   0   9   4    0.90    2.20
   0  -9   4   -2.10    2.40
   0  -9   4    5.00    3.10
   0   9   5   -3.40    1.90
   0   9  -5   -3.90    2.90
   0   9  -5    0.70    1.90
   0   9   5   -3.00    2.00
   0  -9   5   -2.00    2.60
   0  -9   5   -4.10    2.70
   0   9   6    6.60    3.20
   0   9   6    2.90    2.60
   0   9  -6    2.60    3.80
   0  -9   6    0.10    3.30
   0  -9  -6    1.40    2.70
   0  -9   6    3.00    3.30
   0   9  -7   -1.60    3.70
   0   9   7    4.00    2.90
   0  -9   7    3.20    3.80
   0  -9   7    0.90    2.90
   0  -9  -7    2.10    3.00
   0   9  -8   50.89   11.10
   0   9  -8   51.59   15.50
   0   9   8   60.19    9.30
   0  -9   8   66.19   10.40
   0  -9  -8   74.29   10.40
   0  -9   8   66.79    9.80
   0   9   9    0.30    2.60
   0   9  -9   -0.60    3.60
   0   9  -9   -1.00    6.00
   0  -9   9   -3.60    2.00
   0  -9  -9   -4.00    3.50
   0  -9   9    4.90    3.70
   0   9  10    0.40    2.80
   0   9 -10   -3.70    5.80
   0   9 -10   -0.50    4.30
   0  -9 -10    0.60    3.90
   0  -9  10    1.20    3.70
   0  -9  10    0.10    2.80
   0  10   0   -2.70    2.00
   0  10   0    7.20    4.10
   0 -10   0    0.00    2.50
   0  10   1    0.40    2.40
   0  10  -1    2.60    2.20
   0 -10   1   -0.20    2.70
   0 -10  -1    0.60    2.30
   0  10  -2   41.20    6.20
   0  10   2   49.20    6.80
   0 -10   2   31.50    7.00
   0 -10  -2   33.70    6.10
   0  10  -3  180.38   19.60
   0  10  -3  166.28   22.10
   0  10   3  162.98   20.00
   0 -10   3  144.39   21.10
   0  10  -4    3.20    2.50
   0  10  -4    3.70    4.40
   0  10   4    0.80    2.40
   0 -10   4    3.60    3.30
   0 -10   4   -3.40    2.90
   0  10   5    0.40    2.70
   0  10  -5    0.90    3.90
   0 -10   5    6.60    3.40
   0 -10   5    3.30    3.90
   0  10  -6    0.70    3.80
   0  10   6   -0.80    2.80
   0 -10   6    0.90    2.80
   0 -10   6   -0.50    3.40
   0  10  -7   -1.00    4.10
   0  10   7   -2.30    2.50
   0 -10   7   -2.20    3.10
   0 -10   7   -0.20    2.70
   0  10   8   20.90    4.90
   0  10  -8   17.50    6.70
   0  10  -8   15.50   10.10
   0 -10   8   25.40    5.60
   0 -10   8   27.30    6.20
   0  10  -9    7.30    5.20
   0  10   9   -0.20    2.80
   0  10  -9    0.20    7.80
   0 -10   9   -1.50    2.70
   0 -10   9    1.80    3.70
   0  11   0    0.90    2.30
   0 -11   0   -2.70    2.20
   0  11  -1    9.70    3.20
   0  11   1    1.10    2.90
   0 -11  -1    7.00    3.00
   0 -11   1   10.60    3.80
   0  11  -2   24.80    8.30
   0  11   2   42.10    6.70
   0  11  -2   47.50    6.70
   0 -11   2   36.10    6.90
   0  11   3   12.80    3.70
   0  11  -3    5.30    2.90
   0  11  -3    0.10    4.80
   0 -11   3    1.30    3.40
   0  11  -4    1.60    4.70
   0  11   4    3.00    3.10
   0 -11   4    1.40    3.50
   0  11   5    2.40    2.90
   0  11  -5    1.60    4.70
   0 -11   5    3.10    3.70
   0  11   6    6.80    3.60
   0  11  -6    1.30    4.80
   0 -11   6    5.30    3.50
   0 -11   6   10.40    4.70
   1   0 -16   10.80    6.40
   1   0 -16    1.50    8.00
   1   0 -16    4.10    5.50
   1   0 -15    0.60    6.30
   1   0 -15    4.90    4.60
   1   0 -15    8.00    4.70
   1   0 -14   -1.60    3.80
   1   0 -14    0.20    5.60
   1   0 -14   -2.00    4.80
   1   0 -14    2.10    3.70
   1   0 -14    6.20    4.30
   1   0 -13   -0.60    2.60
   1   0 -13   -1.60    3.80
   1   0 -13    1.00    4.80
   1   0 -13   -3.00    3.20
   1   0 -13    0.50    3.80
   1   0 -12   36.20    6.80
   1   0 -12   36.50    7.30
   1   0 -12   54.99    9.60
   1   0 -12   60.79    9.30
   1   0 -12   46.70    8.20
   1   0 -12   38.10   10.90
   1   0 -11   -4.90    2.50
   1   0 -11    0.00    2.30
   1   0 -11    3.10    4.90
   1   0 -11   -3.20    2.40
   1   0 -11    0.10    2.10
   1   0 -11    3.00    2.60
   1   0 -10   64.59   13.30
   1   0 -10   46.70    8.80
   1   0 -10   78.49    9.40
   1   0 -10   61.59    8.50
  -1   0  10   58.89    7.20
   1   0 -10   58.99    9.20
   1   0 -10   67.89   10.30
  -1   0   9    1.10    1.00
   1   0  -9    0.10    1.50
   1   0  -9    1.40    2.00
   1   0  -9   -0.30    2.80
   1   0  -9   -0.60    1.80
   1   0  -9   -0.40    1.90
   1   0  -9    0.90    2.30
   1   0  -8   47.20    6.10
   1   0  -8   45.90    5.80
   1   0  -8   33.80    6.10
  -1   0   8   35.70    4.80
   1   0  -8   42.70    9.20
  -1   0   8   39.10    4.60
   1   0  -8   32.00    6.30
   1   0  -8   32.10    5.90
  -1   0   7   -0.80    0.70
   1   0  -7    1.60    1.50
  -1   0   7    1.00    0.80
   1   0  -7   -1.20    0.90
   1   0  -7    0.50    2.40
   1   0  -7   -0.10    1.30
   1   0  -7    0.10    1.20
   1   0  -7   -0.30    1.80
   1   0  -6 1605.64  153.88
   1   0  -6 1178.48  153.48
   1   0  -6 1354.56  153.58
   1   0  -6 1271.97  155.08
   1   0  -6 1572.64  153.38
  -1   0   6 1419.86  152.88
   1   0  -6 1450.85  153.18
   1   0  -5   -1.00    0.80
  -1   0   5    0.60    0.60
   1   0  -5    0.10    1.00
   1   0  -5   -0.10    0.70
   1   0  -5    0.50    1.80
   1   0  -5    0.60    0.60
   1   0  -5   -1.40    1.10
   1   0  -4  135.59   16.40
  -1   0   4  140.39   16.20
   1   0  -4  164.98   16.30
  -1   0   3    0.50    0.50
   1   0  -3   -0.60    0.50
   1   0  -3    0.10    0.60
   1   0  -2 4881.71  496.25
  -1   0   2 4703.23  496.25
   1   0  -2 4098.29  496.25
   1   0  -1    2.40    0.40
  -1   0   1    2.80    0.50
  -1   0   0   -0.10    0.10
   1   0   1    0.20    0.10
  -1   0  -1    0.00    0.10
  -1   0  -1    0.20    0.40
  -1   0  -2  888.11   86.99
  -1   0  -2  783.02   87.19
   1   0   2  726.33   86.99
  -1   0  -3   -0.60    0.60
  -1   0  -3    0.30    0.40
   1   0   3    0.10    0.40
  -1   0  -4  267.57   29.90
  -1   0  -4  260.87   30.40
   1   0   4  299.67   29.50
  -1   0  -4  231.88   30.30
  -1   0  -5    1.20    1.00
  -1   0  -5    0.70    1.50
   1   0   5   -0.70    0.50
  -1   0  -5    0.60    1.00
  -1   0  -5    0.40    1.20
  -1   0  -5   -0.60    1.10
  -1   0  -5   -0.50    1.90
  -1   0  -5    0.40    0.80
  -1   0  -5    0.80    0.60
  -1   0  -6    6.40    3.30
   1   0   6    5.50    1.10
  -1   0  -6    5.50    2.00
  -1   0  -6    6.40    1.90
  -1   0  -6    2.80    1.70
  -1   0  -6    4.00    1.60
  -1   0  -6    5.60    2.30
   1   0   6    7.90    1.30
  -1   0  -6   10.70    2.60
  -1   0  -7    2.10    1.70
  -1   0  -7   -0.20    1.60
  -1   0  -7   -1.50    1.20
   1   0   7   -0.20    0.60
  -1   0  -7    1.60    1.50
   1   0   7   -0.90    0.70
  -1   0  -7    0.50    2.50
  -1   0  -7   -0.50    1.20
  -1   0  -8   67.49    9.80
   1   0   8   80.99    8.40
  -1   0  -8   65.59   10.30
  -1   0  -8   62.99    9.40
   1   0   8   73.89    8.40
  -1   0  -8   75.09   10.50
  -1   0  -8   65.19   12.60
  -1   0  -8   75.69   10.20
  -1   0  -9   -4.70    1.40
  -1   0  -9    0.10    2.50
   1   0   9   -1.50    0.70
  -1   0  -9   -3.30    3.00
  -1   0  -9    0.50    2.20
  -1   0  -9    3.30    2.20
  -1   0  -9   -0.70    1.90
  -1   0 -10    2.00    2.30
  -1   0 -10    0.60    2.30
  -1   0 -10    2.40    3.80
  -1   0 -10    2.80    2.70
  -1   0 -10   -1.90    2.40
  -1   0 -10   -1.30    2.20
  -1   0 -11   -1.30    4.20
  -1   0 -11   -3.90    2.30
  -1   0 -11    5.10    3.20
  -1   0 -11    3.60    3.10
  -1   0 -11    3.00    2.60
  -1   0 -11    0.00    2.30
  -1   0 -12   -4.50    2.90
  -1   0 -12    0.60    3.80
  -1   0 -12    2.00    3.00
  -1   0 -12    0.00    4.80
  -1   0 -12   -0.70    2.60
  -1   0 -13    2.90    6.00
  -1   0 -13    2.20    3.50
  -1   0 -13    1.60    4.00
  -1   0 -13    1.70    3.30
  -1   0 -13    2.90    4.20
  -1   0 -14   53.09   14.50
  -1   0 -14   86.79   11.90
  -1   0 -14   55.19   10.60
  -1   0 -15   -4.30    6.80
  -1   0 -15  -11.30    3.80
  -1   0 -15   -6.60    3.80
  -1   0 -16    2.80    4.90
  -1   0 -16    9.00    6.40
  -1   0 -16   -4.10    7.70
   1   1 -16  174.08   19.60
   1   1 -16  107.49   22.30
   1   1 -16   92.69   16.80
   1  -1 -16  141.49   17.20
   1  -1 -16  115.69   21.90
   1  -1 -16  124.79   18.00
   1   1 -15   12.50    7.90
   1   1 -15    3.40    4.60
   1   1 -15   15.30    5.80
   1  -1 -15   10.90    8.60
   1  -1 -15   11.50    6.30
   1  -1 -15    8.60    5.40
   1  -1 -15    1.30    5.00
   1   1 -14    7.50    4.60
   1   1 -14   -0.80    5.90
   1   1 -14    1.90    4.00
   1   1 -14    5.80    5.10
   1  -1 -14    7.40    4.80
   1  -1 -14    7.40    4.90
   1  -1 -14    8.40    7.40
   1  -1 -14    0.80    3.90
   1   1 -13   -1.30    3.60
   1   1 -13    0.90    3.10
   1   1 -13    2.00    6.10
   1   1 -13   -0.40    3.70
   1   1 -13   -1.80    2.90
   1  -1 -13    0.70    3.00
   1  -1 -13    1.70    3.80
   1  -1 -13    1.50    4.20
   1  -1 -13   -3.50    2.50
   1  -1 -13    1.60    3.70
   1  -1 -13    0.90    5.70
   1   1 -12    2.60    3.60
   1   1 -12    1.50    3.30
   1   1 -12    4.10    3.20
   1   1 -12    1.50    5.40
   1   1 -12    1.90    4.00
   1  -1 -12    6.60    4.20
   1  -1 -12    4.10    3.00
   1  -1 -12    3.60    5.40
   1  -1 -12    7.10    3.10
   1  -1 -12    4.40    3.50
   1  -1 -12    4.30    3.90
   1   1 -11    6.30    5.40
   1   1 -11    6.10    4.00
   1   1 -11   12.40    4.00
   1   1 -11    5.60    3.20
   1   1 -11   10.60    3.20
   1  -1 -11   15.90    4.50
   1  -1 -11    8.40    3.30
   1  -1 -11    6.40    2.80
   1  -1 -11    6.50    4.90
   1  -1 -11    4.80    3.40
   1  -1 -11    7.40    3.80
   1   1 -10   53.09   12.40
   1   1 -10   68.79    8.40
   1   1 -10   69.59    9.20
   1   1 -10   51.29    9.00
   1   1 -10   51.29    8.90
   1   1 -10   41.70    7.40
  -1  -1  10   58.29    6.70
   1  -1 -10   52.39    8.30
  -1  -1  10   53.69    6.50
   1  -1 -10   55.69    9.10
   1  -1 -10   35.70    9.90
   1  -1 -10   51.29    8.00
   1  -1 -10   51.29    8.40
   1  -1 -10   58.99    7.80
   1   1  -9   -0.10    2.10
   1   1  -9   -2.30    1.70
   1   1  -9   -0.60    1.60
  -1   1   9   -0.20    0.90
   1   1  -9    1.00    1.80
   1   1  -9    2.10    4.10
   1   1  -9    0.20    2.50
   1  -1  -9   -1.00    2.80
   1  -1  -9   -0.10    2.40
  -1  -1   9   -0.30    1.00
   1  -1  -9    1.70    2.20
   1  -1  -9    1.50    1.70
   1  -1  -9   -1.20    1.60
  -1  -1   9    1.50    1.10
   1  -1  -9    1.30    1.60
   1   1  -8   -0.70    1.60
   1   1  -8   -0.40    1.50
  -1   1   8    0.80    0.90
   1   1  -8    1.70    1.50
   1   1  -8    0.40    3.10
   1   1  -8    0.10    1.80
   1   1  -8    0.50    2.30
   1  -1  -8    0.10    1.80
   1  -1  -8    0.60    1.60
   1  -1  -8    0.70    1.50
   1  -1  -8    1.20    1.50
   1  -1  -8    0.20    2.20
  -1  -1   8    0.20    0.90
  -1  -1   8   -0.50    0.90
   1  -1  -8    1.20    2.60
   1   1  -7   41.50    5.60
   1   1  -7   44.90    5.60
   1   1  -7   28.70    5.90
  -1   1   7   33.80    4.90
   1   1  -7   45.90    6.30
   1   1  -7   47.90    9.60
   1   1  -7   41.60    6.60
   1   1  -7   50.39    6.00
   1  -1  -7   43.80    5.60
  -1  -1   7   44.20    5.10
  -1  -1   7   36.10    4.80
   1  -1  -7   39.10    6.20
   1  -1  -7   40.60    6.50
   1  -1  -7   42.20    8.10
   1  -1  -7   34.50    5.80
   1  -1  -7   40.00    5.90
   1   1  -6  128.79   16.00
   1   1  -6  145.79   16.00
  -1   1   6  128.19   15.20
   1   1  -6  128.89   16.10
   1   1  -6  132.39   18.00
   1   1  -6  140.29   15.60
   1  -1  -6  142.59   15.80
  -1  -1   6  143.99   15.30
   1  -1  -6  139.39   16.10
   1  -1  -6  142.39   17.20
   1  -1  -6  153.78   15.60
   1  -1  -6  127.19   15.90
   1  -1  -6  119.29   15.60
  -1  -1   6  137.49   15.20
  -1   1   5   41.60    4.90
   1   1  -5   42.20    6.10
   1   1  -5   48.60    6.30
   1   1  -5   44.60    5.20
   1   1  -5   53.29    8.80
   1   1  -5   39.40    4.90
   1   1  -5   48.50    5.90
   1  -1  -5   41.50    5.60
   1  -1  -5   34.40    6.50
   1  -1  -5   30.60    5.10
   1  -1  -5   43.80    5.90
  -1  -1   5   43.10    4.90
   1  -1  -5   49.30    6.10
   1  -1  -5   44.90    5.20
   1   1  -4   67.69    7.60
  -1   1   4   65.19    7.60
   1   1  -4   65.89    7.70
   1  -1  -4   69.39    7.70
  -1  -1   4   65.69    7.60
   1   1  -3   46.50    5.50
   1   1  -3   50.09    5.50
  -1  -1   3   45.40    5.40
   1  -1  -3   48.30    5.50
   1   1  -2 4858.31  527.85
  -1  -1   2 4809.82  527.85
   1  -1  -2 4885.41  527.85
   1   1  -1 4323.77  470.55
   1   1   0   96.89   11.70
  -1   1   0  116.29   11.70
   1   1   1  267.17   29.50
  -1   1  -1  272.27   29.60
  -1  -1  -1  271.67   29.70
   1  -1   1  272.37   29.60
  -1   1  -3  592.54   63.49
   1   1   3  579.14   63.19
  -1   1  -3  588.24   63.19
   1  -1   3  579.44   63.19
  -1  -1  -3  555.64   63.39
  -1   1  -4  322.47   32.50
  -1   1  -4  277.07   32.70
  -1   1  -4  339.37   32.20
   1   1   4  302.17   32.10
  -1   1  -4  275.87   32.90
  -1   1  -4  315.47   32.60
  -1  -1  -4  267.47   32.90
   1  -1   4  272.87   32.10
  -1  -1  -4  263.37   33.10
  -1  -1  -4  269.57   32.60
  -1  -1  -4  311.67   32.50
  -1   1  -5    7.30    1.20
  -1   1  -5    6.00    1.80
  -1   1  -5    6.40    1.50
  -1   1  -5    5.70    2.00
   1   1   5    5.40    1.00
  -1   1  -5    5.10    2.10
  -1   1  -5    9.60    3.70
  -1   1  -5    7.50    1.70
  -1   1  -5    5.50    1.60
  -1  -1  -5    6.50    1.70
  -1  -1  -5    3.80    2.20
   1  -1   5    3.70    0.90
  -1  -1  -5    8.00    2.10
  -1  -1  -5    2.60    1.40
  -1  -1  -5    2.80    1.40
  -1  -1  -5    3.50    1.70
   1  -1   5    6.00    1.30
  -1   1  -6   11.20    2.30
  -1   1  -6    6.20    2.40
  -1   1  -6   14.90    2.60
  -1   1  -6    9.10    2.00
  -1   1  -6    6.80    2.50
  -1   1  -6    7.00    2.20
  -1   1  -6    7.20    3.60
   1   1   6    8.10    1.40
  -1   1  -6   12.60    1.80
  -1  -1  -6    8.70    2.50
   1  -1   6   10.90    1.50
  -1  -1  -6    9.00    2.10
   1  -1   6    8.80    1.70
  -1  -1  -6    8.00    3.10
  -1  -1  -6    7.50    2.40
  -1  -1  -6    9.50    2.30
  -1  -1  -6    7.50    2.20
  -1   1  -7   61.29   10.10
   1   1   7   75.39    8.30
  -1   1  -7   70.39    8.90
  -1   1  -7   69.09    9.50
  -1   1  -7   75.19   10.00
  -1   1  -7   84.79    9.30
   1   1   7   82.59    8.20
  -1   1  -7   74.19    9.30
  -1   1  -7   72.19   12.80
  -1  -1  -7   59.39   11.20
  -1  -1  -7   57.19    9.00
  -1  -1  -7   64.19    9.60
   1  -1   7   75.09    8.30
  -1  -1  -7   67.79    9.30
  -1  -1  -7   73.99    9.20
   1  -1   7   73.59    8.50
  -1  -1  -7   67.89    9.80
  -1   1  -8  321.47   36.00
  -1   1  -8  302.27   39.10
   1   1   8  312.27   35.00
  -1   1  -8  336.97   36.10
  -1   1  -8  316.47   36.30
  -1   1  -8  373.66   36.40
  -1   1  -8  291.17   36.60
  -1   1  -8  337.57   35.90
  -1  -1  -8  317.77   36.20
  -1  -1  -8  288.77   36.10
  -1  -1  -8  321.67   36.30
  -1  -1  -8  317.77   35.80
   1  -1   8  312.67   35.10
  -1  -1  -8  298.07   37.90
   1  -1   8  337.77   35.30
  -1  -1  -8  323.87   36.10
  -1   1  -9  188.18   19.00
  -1   1  -9  156.18   18.90
  -1   1  -9  126.09   18.80
  -1   1  -9  150.18   22.00
  -1   1  -9  143.29   18.40
  -1   1  -9  173.98   18.70
  -1  -1  -9  143.49   18.20
  -1  -1  -9  153.48   18.60
  -1  -1  -9  158.48   18.80
  -1  -1  -9  147.89   18.60
   1  -1   9  151.58   17.50
  -1  -1  -9  165.98   19.00
  -1  -1  -9  169.18   21.40
  -1   1 -10   37.20    7.60
  -1   1 -10   43.00    7.20
  -1   1 -10   32.00    6.20
  -1   1 -10   34.70    6.70
  -1   1 -10   35.00   10.40
  -1   1 -10   35.10    7.00
  -1  -1 -10   34.40    6.80
  -1  -1 -10   44.10    6.60
  -1  -1 -10   40.90    9.60
  -1  -1 -10   32.70    6.50
  -1  -1 -10   48.70    7.40
  -1  -1 -10   29.50    6.40
   1  -1  10   42.40    5.10
  -1   1 -11    0.30    2.30
  -1   1 -11   -3.50    4.40
  -1   1 -11   -2.70    2.10
  -1   1 -11   -0.10    2.30
  -1   1 -11    4.20    3.60
  -1  -1 -11   -0.40    4.00
  -1  -1 -11   -0.50    2.80
  -1  -1 -11   -1.60    2.00
  -1  -1 -11   -2.60    2.70
  -1  -1 -11    3.70    2.80
  -1  -1 -11   -1.20    2.60
  -1   1 -12    5.30    3.60
  -1   1 -12    7.20    4.30
  -1   1 -12   14.70    4.70
  -1   1 -12    9.40    4.70
  -1   1 -12   11.30    7.10
  -1  -1 -12   17.00    5.00
  -1  -1 -12   12.60    7.00
  -1  -1 -12   14.50    4.10
  -1  -1 -12   12.70    4.40
  -1  -1 -12   16.20    5.20
  -1  -1 -12   16.40    5.00
  -1   1 -13    4.70    4.40
  -1   1 -13    2.70    3.70
  -1   1 -13   -0.80    4.90
  -1   1 -13    1.20    3.90
  -1  -1 -13   -2.60    3.00
  -1  -1 -13    0.20    3.50
  -1  -1 -13    4.40    3.50
  -1  -1 -13   -2.60    5.30
  -1  -1 -13    4.40    4.70
  -1   1 -14   44.80   13.60
  -1   1 -14   71.19   11.30
  -1   1 -14   53.99   10.60
  -1  -1 -14   57.19   10.00
  -1  -1 -14   75.79   11.30
  -1  -1 -14   69.59   15.80
  -1  -1 -14   45.90   10.00
  -1   1 -15    5.10    7.00
  -1   1 -15    4.30    5.10
  -1   1 -15    9.60    5.40
  -1  -1 -15   -1.00    5.20
  -1  -1 -15    3.50    8.60
  -1  -1 -15    3.80    4.30
  -1   1 -16    6.70    5.30
  -1   1 -16    0.10    5.30
  -1   1 -16    0.40    7.10
  -1  -1 -16    0.20    5.70
  -1  -1 -16   -3.40    8.70
  -1  -1 -16   -4.70    3.90
   1   2 -16    1.80    5.40
   1   2 -16    2.40    7.60
   1   2 -16    3.40    5.00
   1  -2 -16   -3.30    9.00
   1  -2 -16    0.90    5.00
   1  -2 -16    5.20    4.90
   1   2 -15   53.59   11.20
   1   2 -15   55.29   11.20
   1   2 -15   52.19   14.80
   1  -2 -15   75.59   16.30
   1  -2 -15   39.20   10.40
   1  -2 -15   86.79   11.40
   1  -2 -15   87.39   12.60
   1   2 -14    0.80    3.80
   1   2 -14   -1.50    5.80
   1   2 -14    1.40    4.10
   1  -2 -14   -2.30    4.70
   1  -2 -14    1.90    4.00
   1  -2 -14   -3.20    3.70
   1  -2 -14  -13.30    5.70
   1  -2 -14   -2.10    3.70
   1   2 -13    0.30    3.50
   1   2 -13    7.70    6.70
   1   2 -13    9.70    4.00
   1   2 -13    4.60    4.20
   1  -2 -13    6.20    4.60
   1  -2 -13    2.50    6.60
   1  -2 -13    4.00    4.00
   1  -2 -13    4.80    3.00
   1  -2 -13    8.90    4.30
   1  -2 -13    4.20    3.70
   1   2 -12  173.98   20.20
   1   2 -12  126.49   25.80
   1   2 -12  178.58   21.40
   1   2 -12  133.49   20.90
   1  -2 -12  173.38   19.90
   1  -2 -12  190.38   24.20
   1  -2 -12  169.88   21.20
   1  -2 -12  180.08   20.60
   1  -2 -12  167.68   20.70
   1  -2 -12  173.28   21.10
   1   2 -11  293.57   32.60
   1   2 -11  232.98   32.60
   1   2 -11  270.47   31.60
   1   2 -11  281.77   32.70
   1   2 -11  228.78   36.00
   1  -2 -11  306.07   32.20
   1  -2 -11  261.67   32.20
   1  -2 -11  297.77   31.40
   1  -2 -11  296.37   34.70
   1  -2 -11  278.37   31.80
  -1  -2  11  267.07   30.80
   1  -2 -11  298.37   32.60
   1   2 -10   10.10    3.20
   1   2 -10   10.00    4.10
   1   2 -10    9.60    4.30
   1   2 -10    7.60    6.50
   1   2 -10   11.50    3.80
   1  -2 -10   11.60    3.70
   1  -2 -10    6.20    3.30
   1  -2 -10   13.00    3.60
  -1  -2  10   14.90    2.40
   1  -2 -10    9.50    3.60
  -1  -2  10   12.30    2.60
   1  -2 -10    9.90    2.90
   1  -2 -10    6.80    4.60
   1   2  -9   23.80    4.30
   1   2  -9    8.80    5.80
   1   2  -9   19.10    5.30
  -1   2   9   23.10    3.30
   1   2  -9   27.60    5.70
   1   2  -9   23.50    4.80
   1  -2  -9   26.50    5.40
   1  -2  -9   20.00    4.20
   1  -2  -9   24.20    4.10
  -1  -2   9   23.00    3.30
  -1  -2   9   29.40    3.80
   1  -2  -9   22.80    6.30
   1  -2  -9   15.60    4.10
   1  -2  -9   17.60    4.40
   1   2  -8    1.10    1.90
   1   2  -8    4.10    1.90
   1   2  -8    0.50    2.40
   1   2  -8    1.70    2.00
   1   2  -8    2.30    1.80
   1   2  -8    5.00    4.50
   1   2  -8    2.10    1.40
  -1   2   8    3.50    1.20
  -1  -2   8    3.40    1.20
   1  -2  -8    4.60    2.60
   1  -2  -8    1.80    3.00
   1  -2  -8    3.10    2.10
   1  -2  -8    1.30    2.00
  -1  -2   8    0.80    1.30
   1  -2  -8    0.40    1.50
   1  -2  -8   -0.20    1.60
   1   2  -7   10.30    2.40
   1   2  -7   13.10    3.50
   1   2  -7   12.60    2.20
   1   2  -7   10.00    5.10
   1   2  -7   11.10    2.50
   1   2  -7   12.20    3.60
  -1   2   7   12.90    2.10
   1   2  -7   10.10    2.70
   1  -2  -7   12.70    2.80
   1  -2  -7   12.70    2.30
   1  -2  -7    7.70    3.40
  -1  -2   7   11.00    2.00
   1  -2  -7   12.50    3.00
   1  -2  -7    8.10    2.70
  -1  -2   7   13.60    2.50
   1  -2  -7   11.70    3.30
  -1   2   6    3.00    1.00
   1   2  -6    3.80    3.60
   1   2  -6    3.40    2.00
   1   2  -6    4.30    1.20
   1   2  -6    4.60    1.50
   1   2  -6    5.10    1.90
   1   2  -6    4.30    2.20
  -1  -2   6    2.90    1.00
   1  -2  -6    5.10    1.40
  -1  -2   6    3.40    1.40
   1  -2  -6    5.20    1.60
   1  -2  -6    7.10    2.80
   1  -2  -6    8.70    2.30
   1  -2  -6    2.10    1.50
   1  -2  -6    4.20    2.10
   1   2  -5    6.70    1.90
   1   2  -5    8.80    1.70
   1   2  -5   10.20    2.90
   1   2  -5    6.60    1.80
   1   2  -5    5.70    2.10
   1   2  -5    4.10    3.10
   1  -2  -5    6.00    2.10
  -1  -2   5    5.90    1.60
   1  -2  -5    7.00    2.00
   1  -2  -5   10.90    2.00
  -1  -2   5    8.00    1.40
   1  -2  -5    5.70    1.50
   1  -2  -5    6.50    1.80
   1  -2  -5    9.10    2.60
   1   2  -4   41.10    5.30
   1   2  -4   48.70    6.30
   1   2  -4   46.70    5.80
   1   2  -4   44.80    5.70
   1   2  -4   44.50    5.40
   1  -2  -4   55.09    6.30
  -1  -2   4   42.10    5.30
  -1  -2   4   40.30    5.50
   1  -2  -4   46.80    5.40
   1  -2  -4   46.40    6.10
   1   2  -3   76.09    8.30
  -1  -2   3   69.69    8.30
   1  -2  -3   74.99    8.40
   1   2  -2   69.49    7.70
  -1  -2   2   67.09    7.70
   1   2  -1  882.61   95.99
  -1  -2   1  879.31   95.99
   1   2   0  783.02   84.29
  -1   2   0  784.32   84.29
  -1  -2   0  752.12   84.29
  -1   2  -1   85.49    9.20
   1   2   1   84.39    9.20
   1  -2   1   79.09    9.20
  -1   2  -3  383.86   41.10
  -1  -2  -3  353.16   41.20
  -1  -2  -3  400.66   41.90
   1  -2   3  386.36   41.40
   1  -2   3  361.56   41.00
  -1   2  -4 1148.09  131.29
  -1   2  -4 1231.38  131.19
  -1   2  -4 1218.58  130.89
  -1   2  -4 1145.19  131.69
  -1   2  -4 1153.98  131.09
  -1   2  -4 1307.07  133.49
  -1  -2  -4 1219.68  131.19
  -1  -2  -4 1104.49  131.19
  -1  -2  -4 1299.87  131.09
   1  -2   4 1211.08  131.19
   1  -2   4 1146.79  130.89
  -1  -2  -4 1224.68  131.49
   1   2   5  189.68   21.10
  -1   2  -5  190.78   21.80
  -1   2  -5  168.08   22.10
  -1   2  -5  196.98   21.60
  -1   2  -5  193.48   24.00
  -1   2  -5  181.98   21.40
  -1   2  -5  197.88   21.50
  -1   2  -5  182.08   21.40
  -1  -2  -5  194.68   21.50
   1  -2   5  190.48   21.20
  -1  -2  -5  196.18   22.80
   1  -2   5  202.08   21.50
  -1  -2  -5  199.88   21.60
  -1  -2  -5  174.18   21.60
  -1  -2  -5  189.78   21.90
  -1  -2  -5  210.28   22.50
   1   2   6   33.30    3.70
  -1   2  -6   32.10    4.70
  -1   2  -6   31.50    5.20
  -1   2  -6   33.80    5.80
   1   2   6   30.40    3.80
  -1   2  -6   22.30    4.10
  -1   2  -6   35.60    8.00
  -1   2  -6   33.50    4.70
   1  -2   6   26.60    3.80
  -1  -2  -6   35.90    5.30
  -1  -2  -6   34.30    4.60
  -1  -2  -6   36.50    5.00
   1  -2   6   26.90    4.10
  -1  -2  -6   28.80    5.60
  -1  -2  -6   28.50    4.50
  -1  -2  -6   24.70    4.40
  -1   2  -7    1.40    3.20
   1   2   7    0.40    0.70
  -1   2  -7    1.30    1.10
  -1   2  -7    5.40    2.20
  -1   2  -7   -2.60    1.40
  -1   2  -7   -0.30    2.00
  -1   2  -7   -1.50    1.30
  -1  -2  -7    1.60    2.70
   1  -2   7   -0.50    0.80
  -1  -2  -7    1.00    1.90
  -1  -2  -7    0.90    1.60
  -1  -2  -7    1.70    1.70
   1  -2   7   -0.60    1.00
  -1  -2  -7   -0.20    1.10
  -1  -2  -7   -0.10    1.70
  -1   2  -8   85.99   11.20
  -1   2  -8   88.19    9.90
  -1   2  -8   84.79   10.20
  -1   2  -8   77.69   10.60
  -1   2  -8   77.29   14.80
  -1   2  -8   66.49   11.30
  -1  -2  -8   84.69   11.30
  -1  -2  -8   87.89   11.10
  -1  -2  -8   73.59   10.20
  -1  -2  -8   86.79   12.10
  -1  -2  -8   72.79   10.40
  -1  -2  -8   79.89   10.10
   1  -2   8   76.99    9.20
   1  -2   8   75.79    9.50
  -1   2  -9  492.35   60.99
  -1   2  -9  415.56   57.49
  -1   2  -9  455.85   57.09
  -1   2  -9  540.25   57.09
  -1   2  -9  492.95   56.69
  -1   2  -9  517.05   56.89
  -1  -2  -9  525.85   56.99
  -1  -2  -9  524.25   57.29
   1  -2   9  490.35   56.19
  -1  -2  -9  537.75   56.79
  -1  -2  -9  557.44   57.39
  -1  -2  -9  545.15   59.19
  -1  -2  -9  540.25   57.09
  -1   2 -10  127.99   21.80
  -1   2 -10  176.68   21.50
  -1   2 -10  180.08   22.00
  -1   2 -10  172.58   21.30
  -1   2 -10  170.08   25.80
  -1   2 -10  181.08   21.60
  -1  -2 -10  177.58   21.90
  -1  -2 -10  198.68   22.00
  -1  -2 -10  195.98   21.80
   1  -2  10  175.18   20.60
  -1  -2 -10  196.68   21.90
  -1  -2 -10  212.18   24.70
  -1  -2 -10  209.28   21.60
  -1   2 -11    1.60    4.90
  -1   2 -11   -1.40    2.40
  -1   2 -11    6.10    3.80
  -1   2 -11    2.40    3.10
  -1   2 -11   -1.90    2.30
  -1  -2 -11    2.60    2.20
  -1  -2 -11    2.80    3.00
  -1  -2 -11    5.50    3.70
  -1  -2 -11    1.10    5.40
  -1  -2 -11    1.00    3.80
   1  -2  11    0.10    1.30
  -1  -2 -11    1.20    2.90
  -1   2 -12   -3.50    2.50
  -1   2 -12    3.60    5.90
  -1   2 -12   -2.30    2.90
  -1   2 -12    7.20    3.60
  -1  -2 -12   -0.40    3.30
  -1  -2 -12    0.70    2.60
  -1  -2 -12   -0.30    3.10
  -1  -2 -12   -2.70    3.20
   1  -2  12    3.60    1.60
  -1  -2 -12    3.40    3.90
  -1  -2 -12    2.50    6.00
  -1   2 -13   67.69   12.70
  -1   2 -13   63.89   11.60
  -1   2 -13   83.69   12.00
  -1   2 -13   75.19   17.40
  -1  -2 -13   81.29   16.40
  -1  -2 -13   80.89   12.30
  -1  -2 -13   64.09   11.10
  -1  -2 -13   83.19   11.30
  -1  -2 -13   83.39   12.30
  -1  -2 -13   87.89   15.80
  -1   2 -14    9.40    8.00
  -1   2 -14   15.20    5.30
  -1   2 -14   10.70    5.70
  -1  -2 -14    9.10    4.70
  -1  -2 -14   19.50    6.40
  -1  -2 -14   11.80    9.60
  -1  -2 -14   25.50    5.90
  -1   2 -15    0.30    4.30
  -1   2 -15    0.80    6.20
  -1   2 -15   -1.60    4.00
  -1  -2 -15    0.90    4.20
  -1  -2 -15   -3.90    4.60
  -1  -2 -15   -8.50    8.00
  -1  -2 -15   -1.10    3.70
  -1   2 -16    2.60    7.20
  -1   2 -16    6.60    5.80
  -1  -2 -16    1.60    5.10
  -1  -2 -16   -8.30   10.00
   1   3 -16   -2.30    4.30
   1   3 -16   -0.70    4.00
   1   3 -16   -0.80    6.80
   1  -3 -16   -2.60    4.10
   1  -3 -16   -7.60    9.70
   1  -3 -16    5.90    4.90
   1   3 -15   13.00    5.80
   1   3 -15    5.70    8.10
   1   3 -15   19.70    6.10
   1  -3 -15   13.30    5.60
   1  -3 -15   16.70   10.70
   1  -3 -15   23.70    5.80
   1  -3 -15   28.60    7.00
   1   3 -14   11.60    5.10
   1   3 -14   14.70    5.90
   1   3 -14    4.90    7.10
   1  -3 -14   21.10    9.80
   1  -3 -14   11.60    4.70
   1  -3 -14    7.90    4.70
   1  -3 -14   14.10    5.00
   1   3 -13   12.90    4.30
   1   3 -13   -3.00    2.70
   1   3 -13    2.20    6.30
   1   3 -13    2.30    3.70
   1  -3 -13   -0.20    4.40
   1  -3 -13   -0.40    2.80
   1  -3 -13   10.70    4.20
   1  -3 -13    3.40    4.30
  -1  -3  13    0.80    2.00
   1  -3 -13   11.80    8.00
   1  -3 -13    4.40    3.70
   1   3 -12  108.99   18.60
   1   3 -12   79.89   17.00
   1   3 -12  116.69   23.90
   1   3 -12  131.79   17.30
   1  -3 -12  169.18   17.00
   1  -3 -12  136.89   18.20
   1  -3 -12  126.19   17.70
   1  -3 -12  158.78   20.70
   1  -3 -12  142.89   16.20
  -1  -3  12  131.69   15.70
   1  -3 -12  126.79   17.90
   1   3 -11   25.90    6.10
   1   3 -11   31.20    5.80
   1   3 -11   24.20   10.00
   1   3 -11   20.70    6.40
   1  -3 -11   22.80    5.70
   1  -3 -11   23.70    7.90
   1  -3 -11   35.00    5.90
   1  -3 -11   28.60    5.10
   1  -3 -11   38.40    6.70
  -1  -3  11   28.80    4.80
   1  -3 -11   33.30    6.70
   1   3 -10   -0.90    2.00
   1   3 -10    2.80    3.00
   1   3 -10    1.00    4.60
   1   3 -10   -5.50    2.00
   1  -3 -10    3.80    2.50
   1  -3 -10    0.20    2.40
   1  -3 -10    1.30    4.60
  -1  -3  10    0.80    1.60
   1  -3 -10   -0.60    2.40
  -1  -3  10   -2.80    2.00
   1  -3 -10   -1.30    1.70
   1  -3 -10   -3.40    2.10
   1   3  -9   18.00    5.30
   1   3  -9   22.40    8.00
   1   3  -9   13.30    3.90
  -1   3   9   18.20    3.40
   1   3  -9   17.00    4.80
   1  -3  -9   16.70    3.60
   1  -3  -9   25.50    6.80
  -1  -3   9   21.30    3.40
   1  -3  -9   22.60    4.20
   1  -3  -9   13.90    4.20
  -1  -3   9   28.90    4.00
   1  -3  -9   24.80    5.10
   1  -3  -9   34.70    5.80
   1   3  -8    2.90    2.70
   1   3  -8    2.30    1.60
   1   3  -8    6.40    2.80
  -1   3   8    2.00    1.20
   1   3  -8    4.30    2.70
   1   3  -8    3.60    4.20
   1   3  -8   -0.20    1.50
  -1  -3   8    2.30    1.30
   1  -3  -8    0.80    2.30
   1  -3  -8   -2.20    1.70
   1  -3  -8   -1.90    1.90
   1  -3  -8    5.10    3.60
   1  -3  -8    1.30    1.40
  -1  -3   8    3.50    1.70
   1  -3  -8    3.30    1.90
   1   3  -7  291.47   36.00
  -1   3   7  326.97   36.00
   1   3  -7  358.26   37.00
   1   3  -7  298.37   39.80
   1   3  -7  311.87   36.40
   1   3  -7  300.07   36.90
   1   3  -7  273.37   37.20
   1  -3  -7  372.76   36.30
   1  -3  -7  300.17   36.80
   1  -3  -7  314.57   36.20
  -1  -3   7  327.87   36.00
  -1  -3   7  321.07   36.40
   1  -3  -7  321.77   36.80
  -1  -3   7  346.17   36.90
   1  -3  -7  327.37   36.80
   1  -3  -7  387.96   37.80
   1   3  -6  741.13   79.69
   1   3  -6  683.03   78.89
   1   3  -6  733.83   82.49
   1   3  -6  627.04   79.99
   1   3  -6  784.32   79.59
   1   3  -6  682.03   79.09
   1  -3  -6  853.91   79.09
  -1  -3   6  703.63   78.89
   1  -3  -6  724.63   79.59
   1  -3  -6  752.62   79.49
   1  -3  -6  728.73   79.59
  -1  -3   6  701.03   79.39
   1  -3  -6  696.63   78.99
  -1  -3   6  660.63   79.19
   1   3  -5  790.82   88.99
   1   3  -5  887.81   89.39
   1   3  -5  737.83   89.39
   1   3  -5  768.02   88.79
   1   3  -5  824.72   89.29
   1   3  -5  783.92   89.89
   1  -3  -5  785.92   89.39
  -1  -3   5  799.92   89.29
   1  -3  -5  827.32   89.49
   1  -3  -5  867.01   88.99
   1  -3  -5  899.71   89.29
  -1  -3   5  780.02   88.79
  -1  -3   5  819.92   89.19
   1   3  -4    3.30    1.70
   1   3  -4    0.50    1.50
   1   3  -4    0.10    1.20
   1  -3  -4    7.40    2.80
  -1  -3   4    0.20    1.40
  -1  -3   4    0.60    0.70
   1  -3  -4    1.20    1.10
   1  -3  -4    2.30    0.90
   1  -3  -4    0.80    1.30
  -1  -3   4    0.30    1.10
   1   3  -3  142.99   16.40
  -1  -3   3  139.49   15.80
  -1  -3   3  145.69   16.10
   1  -3  -3  137.69   16.20
  -1  -3   3  143.79   16.30
   1   3  -2  849.41   92.39
   1   3  -2  763.32   93.49
   1   3  -2  898.01   92.99
  -1   3   2  841.52   92.39
  -1  -3   2  848.42   92.69
  -1  -3   2  822.72   92.39
  -1  -3   2  875.51   92.89
   1  -3  -2  863.61   92.79
  -1   3   1  930.01  100.29
   1   3  -1  761.52  101.19
   1   3  -1  946.71  100.39
  -1   3   1  947.81  100.49
  -1  -3   1  935.21  100.39
  -1  -3   1  969.80  101.19
  -1   3   0 1146.29  114.39
  -1   3   0 1071.69  113.19
   1   3   0  851.41  113.99
   1   3   0 1053.69  113.19
  -1  -3   0 1057.29  113.19
   1   3   1    1.70    1.20
  -1   3  -1    3.00    1.00
   1   3   1    4.10    0.80
  -1   3  -1    5.30    1.50
  -1   3  -1    1.70    0.70
   1  -3   1    4.20    1.50
   1  -3   1    2.40    0.80
  -1   3  -2   33.50    4.10
  -1   3  -2   31.60    4.00
  -1   3  -2   44.50    5.20
   1   3   2   30.60    3.90
   1   3   2   36.20    4.30
  -1   3  -2   39.70    4.70
  -1  -3  -2   36.30    4.10
   1  -3   2   39.30    4.70
  -1  -3  -2   28.80    4.60
   1  -3   2   34.70    4.80
   1  -3   2   29.40    4.00
   1   3   3   46.40    5.90
  -1   3  -3   55.29    7.30
   1   3   3   49.50    5.70
  -1   3  -3   43.30    5.80
  -1   3  -3   43.10    6.50
  -1  -3  -3   59.39    5.90
  -1  -3  -3   48.10    6.00
   1  -3   3   46.50    6.10
   1  -3   3   48.60    5.80
  -1  -3  -3   58.49    6.90
   1  -3   3   54.59    6.40
  -1   3  -4  240.18   26.50
  -1   3  -4  221.78   25.80
  -1   3  -4  233.48   25.60
   1   3   4  234.78   25.50
   1   3   4  246.18   25.30
  -1  -3  -4  207.68   25.50
  -1  -3  -4  232.88   26.10
  -1  -3  -4  217.68   25.60
   1  -3   4  236.98   25.90
   1  -3   4  239.58   25.80
   1  -3   4  226.18   25.40
  -1   3  -5  292.37   32.00
  -1   3  -5  285.27   31.90
  -1   3  -5  272.47   31.80
   1   3   5  285.97   31.70
  -1   3  -5  284.67   32.20
  -1   3  -5  328.07   35.30
  -1   3  -5  273.87   32.80
   1  -3   5  274.37   32.10
  -1  -3  -5  281.87   31.90
   1  -3   5  276.77   32.00
   1  -3   5  283.07   31.60
  -1  -3  -5  284.47   31.90
  -1  -3  -5  252.47   32.40
  -1  -3  -5  277.77   32.40
  -1  -3  -5  339.17   31.90
  -1   3  -6   11.80    2.80
   1   3   6   10.70    1.90
  -1   3  -6   11.10    4.80
  -1   3  -6    7.70    2.20
  -1   3  -6    9.90    2.20
  -1   3  -6    9.10    3.00
  -1   3  -6   12.00    2.30
   1  -3   6    8.20    1.80
  -1  -3  -6    6.80    2.30
  -1  -3  -6   10.80    2.30
  -1  -3  -6    9.90    2.80
  -1  -3  -6   15.20    4.30
   1  -3   6   14.20    2.50
   1  -3   6   11.50    2.60
  -1  -3  -6   12.00    2.50
  -1  -3  -6   13.50    2.50
  -1   3  -7   10.60    2.50
  -1   3  -7   13.50    3.20
  -1   3  -7   12.50    2.70
   1   3   7   11.10    2.10
  -1   3  -7   10.50    5.30
  -1   3  -7   13.50    3.90
  -1   3  -7   15.30    3.60
   1  -3   7   17.90    3.50
  -1  -3  -7   14.70    3.20
  -1  -3  -7   18.40    4.90
  -1  -3  -7   17.30    3.10
  -1  -3  -7   13.70    3.50
  -1  -3  -7   10.90    2.90
   1  -3   7   11.80    2.20
   1  -3   7    9.00    2.50
  -1  -3  -7   16.90    3.10
  -1   3  -8   10.50    3.30
  -1   3  -8    3.00    3.30
  -1   3  -8    7.10    2.40
  -1   3  -8    0.00    3.70
  -1   3  -8    9.00    2.60
  -1   3  -8    7.60    2.10
  -1  -3  -8    6.00    2.60
  -1  -3  -8    2.10    2.00
   1  -3   8    9.10    1.80
  -1  -3  -8    4.20    2.60
  -1  -3  -8    8.10    4.90
  -1  -3  -8    5.40    2.50
  -1  -3  -8    7.40    2.30
   1  -3   8    3.50    1.70
  -1   3  -9   -1.10    2.00
  -1   3  -9   -2.00    2.30
  -1   3  -9   -2.50    2.10
  -1   3  -9    2.40    4.40
  -1   3  -9    1.10    1.90
  -1   3  -9   -0.50    1.50
   1  -3   9    0.10    1.50
  -1  -3  -9   -0.90    4.40
  -1  -3  -9   -0.60    2.10
  -1  -3  -9   -1.30    2.10
  -1  -3  -9   -2.20    2.40
  -1  -3  -9    1.30    1.80
  -1  -3  -9   -0.60    2.40
  -1   3 -10   12.50    3.90
  -1   3 -10    7.80    6.20
  -1   3 -10    6.00    2.90
  -1   3 -10    6.90    4.20
  -1   3 -10    9.90    3.60
  -1  -3 -10    7.70    3.20
  -1  -3 -10   14.70    3.90
  -1  -3 -10   15.40    4.50
  -1  -3 -10    8.90    5.90
   1  -3  10   12.10    2.70
  -1  -3 -10    7.60    3.70
  -1  -3 -10   10.90    3.30
  -1   3 -11   10.20    3.90
  -1   3 -11    5.20    3.50
  -1   3 -11    5.60    4.10
  -1   3 -11    0.80    5.10
   1  -3  11    9.90    2.60
  -1  -3 -11    7.50    6.80
  -1  -3 -11   16.90    4.90
  -1  -3 -11    8.90    2.90
  -1  -3 -11   16.00    4.70
  -1  -3 -11   16.60    4.20
  -1   3 -12   48.70   10.70
  -1   3 -12   58.19   10.20
  -1   3 -12   53.49   10.00
  -1   3 -12   51.19   14.50
  -1  -3 -12   71.49   13.90
  -1  -3 -12   66.99   10.40
  -1  -3 -12   63.39   10.80
  -1  -3 -12   93.39   11.10
   1  -3  12   70.59    8.40
  -1  -3 -12   61.09    9.30
  -1   3 -13  111.59   24.90
  -1   3 -13  147.29   20.40
  -1   3 -13   85.29   19.40
  -1  -3 -13  200.98   25.40
  -1  -3 -13  140.99   20.20
   1  -3  13  144.89   17.40
  -1  -3 -13  183.38   19.30
  -1  -3 -13  204.28   19.60
  -1   3 -14   17.00    9.00
  -1   3 -14   13.60    5.90
  -1   3 -14   12.60    4.70
  -1  -3 -14   16.10    5.40
  -1  -3 -14    7.10    4.30
  -1  -3 -14   13.90   10.90
  -1  -3 -14   13.60    5.60
  -1   3 -15    7.60    7.30
  -1   3 -15    2.70    5.20
  -1   3 -15    4.30    4.70
  -1  -3 -15   -4.30   10.60
  -1  -3 -15    3.50    4.70
  -1  -3 -15   13.10    4.90
  -1  -3 -15    8.10    5.10
   1   4 -15   10.70    8.40
   1   4 -15    8.50    5.70
   1   4 -15    5.70    4.60
   1  -4 -15   23.20    5.10
   1  -4 -15    6.70   10.30
   1  -4 -15   22.90    6.20
   1   4 -14   15.50    5.10
   1   4 -14   11.80    5.30
   1   4 -14    3.00    6.80
   1  -4 -14   12.60    4.10
   1  -4 -14    7.00    4.30
  -1  -4  14   10.70    3.60
   1  -4 -14    7.10    9.90
   1  -4 -14    8.40    4.40
   1   4 -13    1.30    6.60
   1   4 -13    3.00    4.00
   1   4 -13   -5.60    2.50
   1  -4 -13   -0.60    3.10
   1  -4 -13   -3.70    3.40
   1  -4 -13    0.70    3.60
   1  -4 -13   -5.60    8.30
  -1  -4  13    2.80    2.20
   1   4 -12    0.90    3.70
   1   4 -12    7.00    4.00
   1   4 -12    9.80    3.90
   1   4 -12    3.00    6.80
   1  -4 -12   12.70    8.60
   1  -4 -12    6.80    4.00
   1  -4 -12    1.40    3.20
  -1  -4  12    8.40    2.70
   1  -4 -12    6.50    4.10
   1   4 -11   -3.00    3.00
   1   4 -11    3.10    2.90
   1   4 -11    1.60    5.00
   1   4 -11    1.60    3.10
   1  -4 -11    0.00    2.60
  -1  -4  11    3.20    2.20
   1  -4 -11   -1.10    2.80
   1  -4 -11   -2.30    2.70
   1  -4 -11    1.20    5.90
   1  -4 -11    0.70    3.30
   1   4 -10   53.69    8.10
   1   4 -10   35.80   11.80
   1   4 -10   52.99    9.00
   1   4 -10   38.70    8.90
   1  -4 -10   50.99    8.30
  -1  -4  10   42.50    7.20
   1  -4 -10   55.39    7.60
   1  -4 -10   37.70    8.00
   1  -4 -10   73.59    7.70
   1  -4 -10   51.79    8.40
   1  -4 -10   55.19   10.80
   1   4  -9    3.20    3.70
   1   4  -9   10.90    3.90
   1   4  -9    6.80    5.60
   1   4  -9   11.70    3.40
   1  -4  -9   12.80    3.90
   1  -4  -9   11.30    3.70
  -1  -4   9   22.50    3.70
   1  -4  -9   13.80    3.00
   1  -4  -9   23.50    7.00
   1  -4  -9   11.80    3.60
   1  -4  -9   14.20    3.20
   1   4  -8   12.60    4.00
   1   4  -8    2.80    4.50
   1   4  -8    7.20    3.60
   1   4  -8   12.20    3.10
  -1   4   8    8.60    2.40
  -1  -4   8   13.30    2.50
   1  -4  -8   19.30    3.20
   1  -4  -8   14.50    3.70
  -1  -4   8    8.00    2.70
   1  -4  -8   10.30    3.30
   1  -4  -8   17.80    5.50
   1  -4  -8   20.20    3.80
   1   4  -7   28.80    4.00
   1   4  -7   23.40    7.50
   1   4  -7   28.90    4.40
   1   4  -7   27.10    5.80
   1   4  -7   24.30    5.00
   1  -4  -7   26.50    5.10
   1  -4  -7   27.50    4.60
  -1  -4   7   23.10    3.70
  -1  -4   7   28.30    4.90
   1  -4  -7   22.40    3.80
   1  -4  -7   28.80    5.00
  -1  -4   7   27.40    4.50
  -1   4   6   22.50    3.20
   1   4  -6   28.80    3.50
   1   4  -6   22.90    4.20
   1   4  -6   22.50    3.60
   1   4  -6   21.00    4.60
   1   4  -6   25.60    5.20
   1  -4  -6   26.90    3.90
  -1  -4   6   16.80    3.60
   1  -4  -6   18.20    4.00
  -1  -4   6   16.40    4.00
  -1  -4   6   26.00    3.40
   1  -4  -6   22.80    4.50
   1   4  -5  693.13   71.59
   1   4  -5  647.94   72.39
  -1   4   5  639.44   71.09
   1   4  -5  638.74   71.89
   1   4  -5  654.33   71.09
   1   4  -5  639.14   71.69
   1  -4  -5  652.73   71.79
   1  -4  -5  627.64   71.69
  -1  -4   5  651.93   71.69
  -1  -4   5  662.13   71.89
   1  -4  -5  643.84   71.19
  -1  -4   5  642.64   71.19
   1   4  -4  200.08   22.90
   1   4  -4  212.68   22.30
  -1   4   4  191.68   22.50
   1   4  -4  184.58   23.10
   1   4  -4  216.08   22.90
  -1  -4   4  199.38   22.40
   1  -4  -4  192.48   22.80
   1  -4  -4  210.38   22.40
  -1  -4   4  196.88   22.90
  -1  -4   4  204.18   23.10
   1  -4  -4  196.38   23.00
   1   4  -3    8.90    2.20
  -1   4   3    9.70    2.00
   1   4  -3    9.00    1.60
   1   4  -3   10.60    2.70
   1  -4  -3    8.80    2.40
  -1  -4   3    9.30    2.20
   1  -4  -3   10.80    1.80
   1  -4  -3    9.30    2.10
  -1  -4   3    9.70    1.70
  -1  -4   3    8.20    2.40
   1   4  -2  274.07   31.50
   1   4  -2  286.87   31.80
   1   4  -2  278.57   31.00
  -1   4   2  278.37   31.20
  -1   4   2  278.57   31.30
   1  -4  -2  273.97   31.40
  -1  -4   2  275.67   31.00
  -1  -4   2  286.27   31.40
   1  -4  -2  275.27   31.20
  -1  -4   2  279.57   31.60
   1  -4  -2  305.77   31.20
   1   4  -1    0.70    1.20
   1   4  -1    0.60    1.60
  -1   4   1    0.60    0.90
  -1   4   1    1.50    1.00
   1   4  -1    2.30    0.90
  -1  -4   1   -1.80    1.10
  -1  -4   1    0.60    0.70
  -1  -4   1   -0.80    0.90
   1  -4  -1    2.00    1.30
   1  -4  -1    1.50    1.10
   1  -4  -1    3.80    1.10
  -1   4   0   77.89    9.30
   1   4   0   91.49    9.50
   1   4   0   67.39    9.40
  -1   4   0   90.79    9.70
   1   4   0   77.19    9.00
  -1   4   0   81.59    9.10
   1  -4   0   76.09    9.10
  -1  -4   0   78.49    8.80
   1  -4   0   73.29    9.30
  -1  -4   0   73.39    9.30
  -1  -4   0   72.69    9.10
  -1  -4   0   79.89    9.20
  -1   4  -1   32.30    4.20
  -1   4  -1   23.90    3.50
   1   4   1   25.90    3.90
  -1   4  -1   31.90    4.60
   1  -4   1   26.10    3.90
   1  -4   1   22.00    3.30
  -1  -4  -1   28.90    4.10
   1  -4   1   28.60    4.10
  -1  -4  -1   32.50    4.20
   1   4   2  421.16   42.50
  -1   4  -2  388.06   42.80
  -1   4  -2  379.06   42.10
  -1   4  -2  365.96   42.50
   1  -4   2  384.86   42.10
  -1  -4  -2  368.86   42.50
  -1  -4  -2  394.66   42.40
   1  -4   2  367.86   42.40
   1  -4   2  377.16   42.60
   1   4   3 1023.20  113.79
  -1   4  -3 1067.89  114.29
  -1   4  -3 1055.79  113.59
  -1   4  -3 1054.49  114.49
  -1  -4  -3 1018.70  113.59
  -1  -4  -3 1022.40  114.09
  -1  -4  -3 1045.70  113.69
   1  -4   3 1037.70  113.89
   1  -4   3 1036.30  113.49
   1  -4   3 1038.90  114.09
  -1   4  -4   85.29    9.70
   1   4   4   88.29    9.90
  -1   4  -4   79.49   10.80
  -1   4  -4   77.49    9.90
  -1  -4  -4   82.99   10.40
   1  -4   4   82.39    9.60
  -1  -4  -4   91.39    9.70
  -1  -4  -4   81.49    9.50
   1  -4   4   81.69   10.10
   1  -4   4   82.79   10.30
   1   4   5  131.19   15.90
  -1   4  -5  129.89   17.10
  -1   4  -5  137.59   16.10
  -1   4  -5  140.29   16.30
  -1   4  -5  146.09   16.00
  -1  -4  -5  156.68   16.00
   1  -4   5  148.49   16.50
   1  -4   5  136.89   15.80
  -1  -4  -5  136.99   15.80
  -1  -4  -5  132.79   17.20
   1  -4   5  141.79   16.30
  -1  -4  -5  132.89   16.60
  -1   4  -6   13.30    2.80
  -1   4  -6   22.50    3.90
   1   4   6   14.80    2.60
  -1   4  -6   13.20    4.20
  -1   4  -6   15.70    6.00
  -1   4  -6   13.50    3.00
  -1   4  -6   17.90    3.00
  -1  -4  -6   13.20    3.50
   1  -4   6   17.80    3.60
  -1  -4  -6   28.70    6.00
  -1  -4  -6   16.80    3.10
  -1  -4  -6   14.50    2.80
   1  -4   6   12.60    2.90
   1  -4   6   18.20    2.70
  -1   4  -7    2.60    2.20
  -1   4  -7    0.60    2.50
  -1   4  -7    0.60    1.40
  -1   4  -7    1.80    1.80
  -1   4  -7    0.10    1.30
  -1   4  -7    3.70    4.20
  -1  -4  -7    0.60    1.70
  -1  -4  -7   -1.80    1.10
   1  -4   7    0.80    1.10
  -1  -4  -7    4.80    2.60
   1  -4   7    0.60    2.00
  -1  -4  -7    1.00    1.40
   1  -4   7    1.40    1.60
  -1  -4  -7    6.10    5.10
  -1   4  -8    9.30    2.60
  -1   4  -8    8.90    3.30
  -1   4  -8    5.90    3.50
  -1   4  -8   10.40    6.00
  -1   4  -8   13.20    3.10
  -1   4  -8   12.00    3.20
  -1  -4  -8   10.60    2.80
   1  -4   8   11.90    2.90
  -1  -4  -8   22.40    7.10
  -1  -4  -8    9.30    2.60
  -1  -4  -8   16.80    4.30
  -1  -4  -8   12.90    3.00
   1  -4   8    9.40    2.20
  -1   4  -9   35.60   11.10
  -1   4  -9   64.99    8.70
  -1   4  -9   33.10    8.20
  -1   4  -9   49.50    7.50
  -1   4  -9   62.99    8.60
  -1  -4  -9   49.80    7.50
  -1  -4  -9   60.19    7.10
  -1  -4  -9   46.90    8.30
  -1  -4  -9   53.59   10.30
   1  -4   9   48.20    7.20
  -1  -4  -9   53.29    7.40
  -1   4 -10   36.50    9.10
  -1   4 -10   46.30   13.10
  -1   4 -10   59.69    9.00
  -1   4 -10   74.19   11.40
  -1   4 -10   42.00    8.40
   1  -4  10   61.99    8.00
  -1  -4 -10   82.69   13.20
  -1  -4 -10   68.39    8.60
  -1  -4 -10   41.30    8.90
  -1  -4 -10   49.90    7.80
  -1  -4 -10   57.19    8.50
  -1   4 -11    4.70    5.60
  -1   4 -11    3.50    3.00
  -1   4 -11   -1.50    2.70
  -1   4 -11   -1.00    3.20
  -1  -4 -11    4.10    3.60
  -1  -4 -11    3.30    3.10
  -1  -4 -11    5.10    2.90
  -1  -4 -11    1.80    7.80
  -1  -4 -11    6.30    2.60
   1  -4  11    0.30    2.00
  -1   4 -12   18.30    4.80
  -1   4 -12    8.70    5.50
  -1   4 -12    7.20    4.40
  -1   4 -12   18.50    9.60
  -1  -4 -12   20.90    4.80
  -1  -4 -12   26.70    5.30
   1  -4  12   13.00    3.30
  -1  -4 -12   26.80   11.00
  -1  -4 -12   13.40    4.10
  -1  -4 -12   13.30    5.10
  -1   4 -13    2.90    3.40
  -1   4 -13    4.40    6.50
  -1   4 -13    3.60    3.60
  -1  -4 -13   -9.40    8.90
  -1  -4 -13    2.70    3.70
  -1  -4 -13    0.70    3.40
   1  -4  13    2.90    2.00
  -1  -4 -13    3.30    4.00
  -1   4 -14   11.00    8.20
  -1   4 -14   11.60    4.80
  -1   4 -14    7.10    5.20
  -1  -4 -14   22.80    5.30
  -1  -4 -14   15.70    5.10
  -1  -4 -14    6.90    4.70
   1  -4  14   17.90    4.40
  -1  -4 -14   17.70   12.10
  -1   4 -15   26.40    6.60
  -1   4 -15   10.00    6.00
  -1   4 -15   16.30    9.30
  -1  -4 -15   21.60    6.50
  -1  -4 -15   34.80   14.50
  -1  -4 -15   30.00    6.30
   1   5 -15    7.40    5.60
   1   5 -15    9.90    8.70
   1   5 -15    9.10    4.90
   1  -5 -15   19.50    4.20
   1  -5 -15   -1.50   10.80
   1  -5 -15   14.50    5.40
   1   5 -14   15.50    5.00
   1   5 -14   10.80    5.90
   1   5 -14   10.80    8.70
   1  -5 -14   11.20    5.00
   1  -5 -14   17.60    4.10
   1  -5 -14    6.00   10.90
  -1  -5  14   12.70    3.40
   1   5 -13   16.20    6.20
   1   5 -13   12.60    8.80
   1   5 -13   19.90    5.40
   1  -5 -13   23.60   11.80
   1  -5 -13   13.30    5.50
  -1  -5  13   18.30    4.20
   1  -5 -13   20.10    4.40
   1   5 -12   52.09    8.50
   1   5 -12   49.50    9.00
   1   5 -12   25.50    8.80
   1   5 -12   46.30   13.70
   1  -5 -12   59.19    7.90
   1  -5 -12   67.99   14.20
  -1  -5  12   53.29    7.70
   1  -5 -12   37.20    8.50
   1   5 -11    7.80    3.70
   1   5 -11    8.70    4.10
   1   5 -11    4.70    6.20
   1   5 -11    2.60    3.90
   1  -5 -11   11.70    4.50
   1  -5 -11   11.90    3.20
  -1  -5  11   10.00    3.20
   1  -5 -11   18.30    9.30
   1   5 -10   45.30   13.80
   1   5 -10   65.69    9.60
   1   5 -10   53.59    9.80
   1   5 -10   50.49   10.70
   1  -5 -10   76.49    8.50
  -1  -5  10   52.39    8.80
   1  -5 -10   88.29   14.30
   1  -5 -10   59.89    9.90
   1   5  -9   30.20   11.20
   1   5  -9   39.40    8.90
   1   5  -9   44.90    7.60
   1   5  -9   55.49    8.70
   1  -5  -9   59.89    6.90
   1  -5  -9   40.60    8.00
  -1  -5   9   52.09    7.70
   1  -5  -9   80.19   12.50
   1   5  -8    5.90    2.50
   1   5  -8    9.60    4.10
   1   5  -8    5.20    4.90
   1   5  -8    8.50    3.30
  -1  -5   8    8.50    2.70
   1  -5  -8    2.30    2.90
   1  -5  -8    8.10    3.60
   1  -5  -8    5.30    2.00
   1  -5  -8    9.20    7.00
  -1  -5   8    4.90    2.80
   1   5  -7   60.79    8.50
   1   5  -7   69.49    9.50
   1   5  -7   61.59   10.50
   1   5  -7   57.99    8.50
   1  -5  -7   76.59    7.90
  -1  -5   7   52.99    7.80
   1  -5  -7   49.10    9.00
  -1  -5   7   77.89    9.80
  -1  -5   7   61.59    8.90
   1  -5  -7   61.79    9.20
   1   5  -6    3.00    2.30
  -1   5   6    2.50    1.40
   1   5  -6    8.70    2.80
   1   5  -6    1.90    1.50
   1   5  -6    7.60    1.60
   1   5  -6    6.10    3.10
  -1  -5   6    2.70    2.40
   1  -5  -6    7.90    2.80
   1  -5  -6    2.10    2.20
   1  -5  -6    4.30    1.50
  -1  -5   6    4.50    1.50
  -1  -5   6    0.10    1.80
   1  -5  -6   13.20    6.30
   1   5  -5   11.30    2.90
  -1   5   5    9.30    2.00
   1   5  -5    6.20    1.70
   1   5  -5   14.00    2.90
   1   5  -5   12.20    3.10
   1   5  -5    8.60    3.40
   1  -5  -5    9.60    3.00
  -1  -5   5    8.20    1.90
  -1  -5   5    5.00    2.20
   1  -5  -5   13.00    3.00
  -1  -5   5    5.90    2.90
   1  -5  -5   27.90    6.50
   1   5  -4    4.80    1.20
  -1   5   4    4.00    1.60
   1   5  -4   -0.10    2.00
   1   5  -4    1.50    1.90
   1  -5  -4    5.60    2.10
  -1  -5   4    3.30    2.30
  -1  -5   4    4.90    1.40
  -1  -5   4    2.10    1.80
   1  -5  -4    3.60    1.00
   1  -5  -4    1.40    2.10
  -1   5   3   50.29    6.10
   1   5  -3   41.40    5.40
   1   5  -3   46.40    6.50
  -1   5   3   47.00    6.10
   1   5  -3   45.50    6.80
  -1  -5   3   47.60    6.70
  -1  -5   3   36.80    5.50
   1  -5  -3   39.60    6.20
  -1  -5   3   42.10    6.40
   1  -5  -3   46.90    5.60
   1  -5  -3   53.39    6.30
   1   5  -2   14.30    3.20
  -1   5   2   19.70    3.10
  -1   5   2   20.30    3.20
   1   5  -2   20.90    2.80
   1   5  -2   17.80    3.80
  -1   5   2   15.20    3.40
  -1  -5   2   14.30    2.60
  -1  -5   2   14.10    3.40
   1  -5  -2   20.80    3.00
  -1  -5   2   20.30    3.40
   1  -5  -2   17.80    3.30
   1  -5  -2   11.70    2.70
   1   5  -1   38.90    4.40
   1   5  -1   34.20    5.00
   1   5  -1   28.00    5.10
  -1   5   1   25.90    4.40
  -1   5   1   34.40    4.50
  -1   5   1   35.90    5.30
  -1  -5   1   39.50    5.00
   1  -5  -1   34.30    4.50
  -1  -5   1   25.00    3.90
   1  -5  -1   36.40    4.70
  -1  -5   1   28.20    4.80
   1  -5  -1   22.90    4.20
  -1   5   0    0.60    1.40
   1   5   0    1.40    1.70
   1   5   0   -0.60    0.90
  -1   5   0    0.40    1.00
   1   5   0    0.40    1.20
  -1   5   0   -1.00    1.50
   1  -5   0    0.00    1.30
  -1  -5   0    0.70    0.80
  -1  -5   0   -0.40    1.30
  -1  -5   0   -0.50    1.10
   1  -5   0    2.20    1.20
  -1  -5   0    0.60    1.10
   1   5   1   -1.00    1.10
  -1   5  -1   -0.20    1.40
   1   5   1    0.70    1.10
  -1   5  -1   -1.30    1.60
   1   5   1    3.50    2.00
  -1   5  -1    1.30    1.00
  -1  -5  -1   -0.30    1.20
  -1  -5  -1    3.60    1.50
   1  -5   1    0.60    1.20
  -1  -5  -1   -1.60    1.00
   1  -5   1   -1.80    1.30
   1   5   2  409.26   44.80
  -1   5  -2  422.76   44.40
  -1   5  -2  406.06   45.20
  -1   5  -2  404.36   44.90
   1   5   2  398.66   44.90
   1  -5   2  402.36   44.70
  -1  -5  -2  403.26   44.70
   1  -5   2  375.66   44.90
  -1  -5  -2  393.46   44.80
   1  -5   2  403.66   44.30
   1   5   3  193.98   21.90
  -1   5  -3  190.68   21.50
  -1   5  -3  185.28   22.30
   1  -5   3  189.08   21.40
  -1  -5  -3  201.28   22.20
   1  -5   3  183.08   21.90
   1  -5   3  197.48   22.20
  -1  -5  -3  196.48   21.60
   1   5   4   81.59    9.90
  -1   5  -4   73.29   11.30
  -1   5  -4   80.39    9.60
   1  -5   4   78.39    9.50
  -1  -5  -4   83.89    9.50
   1  -5   4   80.29   10.00
   1  -5   4   90.49   10.40
  -1  -5  -4   88.89   11.00
  -1   5  -5  393.76   49.20
  -1   5  -5  436.86   48.00
   1   5   5  418.66   48.10
   1  -5   5  464.25   47.90
  -1  -5  -5  460.55   48.90
   1  -5   5  452.85   48.80
   1  -5   5  417.66   48.40
  -1  -5  -5  434.76   48.00
  -1   5  -6   58.39   10.10
   1   5   6   71.39    8.00
  -1   5  -6   67.09    9.30
  -1   5  -6   62.99    8.60
  -1   5  -6   59.99    7.80
  -1   5  -6   62.39    7.90
  -1  -5  -6   62.99    7.80
   1  -5   6   63.59    8.70
   1  -5   6   65.39    7.80
   1  -5   6   67.69    9.20
  -1  -5  -6   63.19    9.50
  -1   5  -7  104.49   11.90
  -1   5  -7   73.39   16.30
  -1   5  -7   95.99   14.50
  -1   5  -7  103.89   12.20
   1   5   7   97.29   11.60
  -1   5  -7   93.09   12.10
   1  -5   7  117.19   12.70
  -1  -5  -7  101.29   11.70
   1  -5   7   95.19   12.20
   1  -5   7   99.89   11.50
  -1  -5  -7   90.49   13.20
  -1   5  -8   41.60    7.90
  -1   5  -8   65.79    8.10
  -1   5  -8   49.80    8.10
  -1   5  -8   54.69   13.40
  -1   5  -8   53.89    9.90
   1  -5   8   48.10    7.80
  -1  -5  -8   57.69    9.20
   1  -5   8   66.59    8.90
  -1  -5  -8   62.89    7.40
  -1   5  -9    4.30    5.60
  -1   5  -9    3.10    2.80
  -1   5  -9    2.00    2.30
  -1   5  -9    5.70    3.60
  -1   5  -9    3.70    2.30
  -1  -5  -9    3.80    2.30
  -1  -5  -9    0.20    3.30
   1  -5   9   -1.10    1.80
  -1  -5  -9   10.90    8.50
  -1   5 -10   65.79    9.60
  -1   5 -10   41.90    9.80
  -1   5 -10   46.90    8.60
  -1   5 -10   45.00   13.10
  -1  -5 -10   55.79    9.60
   1  -5  10   48.70    7.90
  -1  -5 -10   77.29    8.20
  -1   5 -11   19.90    4.90
  -1   5 -11   15.10    5.30
  -1   5 -11   11.20    7.70
  -1   5 -11   16.30    5.80
   1  -5  11   23.50    4.50
  -1  -5 -11   16.50    5.50
  -1  -5 -11   35.10   11.60
  -1  -5 -11   27.80    4.90
  -1   5 -12   16.40    8.80
  -1   5 -12   23.40    6.90
  -1   5 -12   20.60    5.50
  -1  -5 -12   41.70    6.20
  -1  -5 -12   31.00    7.20
   1  -5  12   27.50    5.20
  -1  -5 -12   53.29   14.10
  -1   5 -13   15.70    6.00
  -1   5 -13    9.50    8.00
  -1   5 -13    6.90    3.90
  -1  -5 -13   15.10    5.50
   1  -5  13   11.20    3.40
  -1  -5 -13   21.80    4.60
  -1  -5 -13   30.30   13.50
  -1   5 -14    4.90    4.20
  -1   5 -14   -0.60    6.40
  -1   5 -14    8.30    5.20
  -1  -5 -14    8.30    3.70
  -1  -5 -14    8.70    5.20
   1  -5  14    0.80    2.20
  -1  -5 -14   -7.10   11.30
   1   6 -14    3.10    6.60
   1   6 -14   -0.30    4.70
  -1  -6  14    0.00    2.60
   1  -6 -14   -2.10    9.60
   1  -6 -14    0.60    4.40
   1  -6 -14    8.70    3.30
   1   6 -13    8.20    8.30
   1   6 -13   15.60    6.10
   1  -6 -13   22.50   11.30
   1  -6 -13   14.30    5.10
   1  -6 -13   20.70    4.40
  -1  -6  13   11.80    3.70
   1   6 -12    5.40    5.00
   1   6 -12   13.10    8.20
  -1  -6  12   11.20    3.60
   1  -6 -12   19.50    4.00
   1  -6 -12    0.60    9.70
   1  -6 -12    0.20    3.80
   1   6 -11    0.80    3.30
   1   6 -11   -1.50    5.30
   1   6 -11    3.40    3.70
   1  -6 -11    2.30    2.40
  -1  -6  11    1.50    2.70
   1  -6 -11   -1.10    8.90
   1  -6 -11    8.20    4.20
   1   6 -10    2.60    5.70
   1   6 -10   10.20    3.70
   1   6 -10    7.90    4.70
   1  -6 -10    0.60    3.60
   1  -6 -10    6.30    2.50
   1  -6 -10   12.60    9.50
  -1  -6  10    3.60    2.90
   1   6  -9    2.90    3.50
   1   6  -9    2.60    2.40
   1   6  -9    3.50    5.40
   1  -6  -9   -4.80    7.30
  -1  -6   9    1.10    2.30
   1  -6  -9    2.70    1.90
   1  -6  -9   -0.40    3.20
  -1  -6   9   -0.80    3.30
   1   6  -8  117.79   17.50
   1   6  -8   99.59   20.30
   1   6  -8  121.59   14.80
  -1  -6   8  142.39   15.70
  -1  -6   8  123.89   15.10
   1  -6  -8  118.19   16.20
   1   6  -7  110.09   12.70
   1   6  -7   83.99   14.50
  -1   6   7   99.29   12.20
  -1  -6   7  106.39   13.10
   1  -6  -7  104.99   14.10
  -1  -6   7  118.49   13.60
   1   6  -6    7.60    3.90
   1   6  -6    8.20    3.20
  -1   6   6    2.80    1.70
   1   6  -6    4.80    1.50
  -1  -6   6    0.80    2.30
   1  -6  -6    6.90    3.10
  -1  -6   6    2.10    2.50
   1   6  -5   69.79   10.80
   1   6  -5   66.09   10.10
  -1   6   5   84.69    9.70
   1   6  -5   68.09    8.40
  -1   6   5   61.39    8.90
   1   6  -5   77.79   10.00
  -1  -6   5   66.09    8.50
  -1  -6   5   85.69   10.50
   1  -6  -5   79.89   10.20
  -1  -6   5   71.29    9.70
   1   6  -4   49.99    8.10
   1   6  -4   46.60    6.10
  -1   6   4   37.40    6.60
   1   6  -4   46.80    7.30
  -1   6   4   53.99    6.90
   1  -6  -4   47.90    7.20
   1  -6  -4   51.59    6.00
  -1  -6   4   57.89    8.00
  -1  -6   4   47.20    7.20
   1  -6  -4   59.59    7.80
  -1  -6   4   51.09    6.40
   1   6  -3    1.10    1.90
   1   6  -3    1.20    1.00
  -1   6   3   -0.30    1.30
  -1   6   3    4.30    1.80
   1   6  -3    2.80    2.30
  -1  -6   3    3.50    2.00
  -1  -6   3    0.40    2.10
   1  -6  -3    2.40    1.90
  -1  -6   3    1.60    1.20
   1  -6  -3    2.70    1.80
   1  -6  -3    1.20    1.20
  -1   6   2    1.90    2.20
  -1   6   2    2.10    1.50
  -1   6   2   -0.80    1.10
   1   6  -2    1.50    1.50
   1   6  -2   -0.10    2.00
   1   6  -2    2.80    1.30
   1  -6  -2    1.80    1.40
  -1  -6   2    3.40    2.20
   1  -6  -2    0.50    1.30
  -1  -6   2    2.20    1.30
   1  -6  -2    1.60    1.50
  -1  -6   2    0.10    1.50
   1   6  -1    4.30    1.60
   1   6  -1    8.40    2.60
  -1   6   1    4.10    1.80
  -1   6   1    6.70    2.70
   1   6  -1    5.50    2.90
  -1   6   1    6.60    2.10
   1  -6  -1    2.40    1.70
   1  -6  -1   11.20    2.10
  -1  -6   1    3.60    2.20
  -1  -6   1    6.20    1.60
   1  -6  -1    5.80    2.00
  -1  -6   1    8.20    2.30
   1   6   0  128.19   14.60
   1   6   0  120.29   13.60
   1   6   0  105.59   14.00
  -1   6   0  124.49   14.40
  -1   6   0  115.29   14.00
  -1   6   0  106.39   13.60
   1  -6   0  121.29   13.80
  -1  -6   0  117.49   13.80
   1  -6   0  114.89   14.00
  -1  -6   0  122.09   14.20
   1   6   1   60.09    7.80
  -1   6  -1   53.79    7.80
   1   6   1   49.80    7.90
  -1   6  -1   58.39    7.20
   1   6   1   62.39    7.50
  -1   6  -1   67.29    8.80
  -1  -6  -1   58.59    7.40
  -1  -6  -1   51.09    7.40
  -1  -6  -1   55.29    7.70
   1  -6   1   51.29    7.40
   1  -6   1   46.40    7.50
  -1   6  -2   27.80    5.50
  -1   6  -2   33.00    4.70
   1   6   2   37.30    5.40
   1   6   2   35.90    5.10
   1   6   2   50.29    6.50
  -1   6  -2   33.50    5.50
   1  -6   2   34.50    5.60
   1  -6   2   35.00    4.50
  -1  -6  -2   32.80    5.10
  -1  -6  -2   26.00    5.00
   1  -6   2   32.00    5.00
   1   6   3    0.90    1.50
  -1   6  -3    2.10    1.20
  -1   6  -3    2.50    2.40
   1  -6   3    0.00    1.50
  -1  -6  -3    1.00    1.80
   1  -6   3   -2.80    1.60
  -1  -6  -3    0.70    1.20
   1  -6   3   -0.60    0.90
   1   6   4   -1.10    1.30
  -1   6  -4   -0.70    2.20
  -1   6  -4   -0.40    1.00
  -1  -6  -4   -1.30    1.80
   1  -6   4   -0.20    1.70
   1  -6   4   -0.90    1.10
  -1  -6  -4   -1.50    1.00
   1  -6   4    1.30    2.10
  -1   6  -5  172.38   21.30
   1   6   5  183.98   20.00
  -1   6  -5  174.08   19.60
   1  -6   5  182.48   20.30
  -1  -6  -5  163.48   20.50
   1  -6   5  153.88   20.40
   1  -6   5  173.18   19.60
  -1   6  -6   74.19    9.00
   1   6   6   68.89    9.10
  -1   6  -6   62.79   11.30
  -1   6  -6   73.99    9.70
   1  -6   6   76.49   10.00
  -1  -6  -6   85.29   11.10
   1  -6   6   77.89   10.50
  -1   6  -7   51.69   12.70
  -1   6  -7   34.40    8.40
  -1   6  -7   46.80    7.00
  -1   6  -7   44.70    7.10
   1   6   7   53.19    6.90
   1  -6   7   40.70    7.70
   1  -6   7   46.50    7.50
  -1  -6  -7   57.29    8.80
  -1  -6  -7   84.49   12.40
  -1   6  -8   24.00    4.20
  -1   6  -8   20.10    4.40
  -1   6  -8   15.20    7.60
  -1   6  -8   12.10    5.10
   1  -6   8   21.10    4.90
  -1  -6  -8   24.10    5.50
  -1  -6  -8   18.50    3.80
   1  -6   8   18.20    4.30
  -1  -6  -8   42.60   10.60
  -1   6  -9   -3.10    2.70
  -1   6  -9    2.90    2.80
  -1   6  -9    7.60    6.20
  -1  -6  -9   -0.40    3.30
  -1  -6  -9    1.80    2.00
  -1  -6  -9   -5.60    8.50
   1  -6   9    4.60    2.70
  -1   6 -10   -2.00    5.20
  -1   6 -10    2.10    3.40
  -1   6 -10    2.00    3.20
  -1  -6 -10    6.40    4.20
   1  -6  10    4.00    2.70
  -1  -6 -10   -1.70    2.00
  -1  -6 -10   -3.80    8.80
  -1   6 -11    3.30    4.20
  -1   6 -11    4.20    6.00
   1  -6  11   -0.10    2.30
  -1  -6 -11    1.20    2.40
  -1  -6 -11    3.20    3.90
  -1  -6 -11   -7.90    9.50
  -1   6 -12   20.30    6.70
  -1   6 -12   12.40    9.20
  -1  -6 -12   34.80    5.60
  -1  -6 -12   45.20   14.20
  -1  -6 -12   24.90    6.40
   1  -6  12   22.40    4.90
  -1   6 -13   -0.70    6.50
  -1   6 -13   -2.50    3.70
  -1  -6 -13    0.90    4.20
  -1  -6 -13    7.80    3.20
   1  -6  13   -1.30    2.20
  -1  -6 -13    4.00   12.40
  -1   6 -14    4.50    4.50
  -1   6 -14    0.90    7.30
  -1  -6 -14  -15.60   12.10
  -1  -6 -14    3.40    3.00
  -1  -6 -14   -1.50    4.40
  -1   7  13    0.70    2.90
   1   7 -13    2.50    4.80
   1   7 -13   -2.70    6.00
  -1  -7  13   -0.20    2.90
   1  -7 -13    2.40    4.10
  -1   7  12   -3.30    2.20
   1   7 -12   -5.00    4.20
   1   7 -12    1.20    4.00
  -1  -7  12   -1.50    2.50
   1  -7 -12   -0.30    3.50
   1   7 -11   -3.70    3.30
  -1   7  11    1.60    2.50
   1   7 -11    2.90    5.70
   1  -7 -11    2.60    3.90
  -1  -7  11    1.30    2.70
   1   7 -10   53.19   11.50
  -1   7  10   78.19    9.80
   1   7 -10   83.09   10.70
   1   7 -10   43.70   14.20
  -1  -7  10   68.69    9.90
   1  -7 -10   74.29   11.00
   1   7  -9  231.98   26.70
   1   7  -9  199.28   28.20
  -1   7   9  230.38   26.50
   1   7  -9  195.28   31.90
  -1  -7   9  259.97   27.60
   1  -7  -9  228.48   27.50
  -1  -7   9  251.87   27.10
   1   7  -8   67.99   17.50
  -1   7   8  109.39   12.80
   1   7  -8   89.09   14.90
   1   7  -8  103.19   12.70
   1  -7  -8   83.19   13.10
  -1  -7   8   94.19   13.40
  -1  -7   8  115.09   13.40
  -1   7   7   14.90    3.70
   1   7  -7    8.40    4.70
  -1   7   7   13.40    3.00
   1   7  -7   19.50    3.80
  -1  -7   7   14.30    4.00
  -1  -7   7   12.30    4.40
   1  -7  -7   15.50    4.40
  -1   7   6    7.80    3.00
   1   7  -6   14.00    2.70
  -1   7   6    8.80    2.70
   1   7  -6   14.40    4.30
   1   7  -6    6.10    4.30
  -1  -7   6   12.10    3.70
  -1  -7   6    9.90    3.70
   1  -7  -6   17.30    4.20
   1   7  -5   31.40    6.70
   1   7  -5   23.80    3.60
  -1   7   5   25.70    4.60
   1   7  -5   28.10    6.00
   1   7  -5   12.20    4.20
  -1   7   5   17.90    3.80
  -1  -7   5   19.20    4.80
   1  -7  -5   27.70    5.00
  -1  -7   5   19.20    4.40
   1   7  -4   68.39    9.60
   1   7  -4   67.39    8.90
   1   7  -4   59.99    7.20
  -1   7   4   46.20    7.80
  -1   7   4   44.00    7.70
   1  -7  -4   61.29    8.80
  -1  -7   4   62.29    8.60
   1  -7  -4   64.69    7.20
  -1  -7   4   58.19    8.90
   1   7  -3  126.69   14.80
   1   7  -3  138.99   15.90
   1   7  -3  149.79   16.60
  -1   7   3  132.09   15.30
  -1   7   3  128.49   15.30
   1  -7  -3  124.09   14.90
  -1  -7   3  126.49   15.90
   1  -7  -3  113.09   15.20
  -1  -7   3  125.69   15.40
  -1   7   2   41.00    7.20
  -1   7   2   41.10    6.20
   1   7  -2   36.40    6.70
   1   7  -2   54.19    8.20
  -1   7   2   45.80    6.60
   1   7  -2   38.50    5.80
  -1  -7   2   40.60    6.50
   1  -7  -2   54.19    6.90
  -1  -7   2   47.30    7.30
   1  -7  -2   44.50    6.30
   1   7  -1    3.80    2.40
   1   7  -1    7.50    2.00
  -1   7   1    2.60    1.50
  -1   7   1    2.50    2.60
  -1   7   1    3.40    2.20
   1   7  -1    1.10    2.90
  -1  -7   1    0.60    2.00
   1  -7  -1    3.40    1.80
   1  -7  -1    1.90    1.90
  -1  -7   1   -2.30    1.90
  -1   7   0   42.20    7.00
  -1   7   0   40.80    6.40
   1   7   0   48.50    6.80
  -1   7   0   32.10    5.60
   1   7   0   42.20    5.90
   1   7   0   27.20    6.50
   1  -7   0   66.19    6.20
   1  -7   0   48.50    6.30
   1  -7   0   32.60    6.20
  -1  -7   0   29.30    6.00
  -1  -7   0   43.90    6.30
  -1   7  -1  192.58   22.40
   1   7   1  201.98   22.60
   1   7   1  208.68   23.50
  -1   7  -1  189.88   23.00
  -1   7  -1  196.18   23.50
   1   7   1  198.88   23.00
   1  -7   1  192.18   22.70
   1  -7   1  191.68   23.00
  -1  -7  -1  203.98   22.90
   1   7   2   75.69   10.20
  -1   7  -2   78.39   10.60
  -1   7  -2   63.59    8.20
   1   7   2   79.99    9.60
   1   7   2   73.89    9.10
  -1  -7  -2   58.69    8.80
   1  -7   2   44.00    8.70
   1  -7   2   79.49    9.30
  -1  -7  -2   65.19    8.90
  -1   7  -3    6.60    1.90
   1   7   3   15.10    3.30
   1   7   3    9.00    2.50
  -1   7  -3   14.20    4.00
   1  -7   3    8.30    3.10
  -1  -7  -3    7.30    2.40
   1  -7   3    8.10    2.60
  -1  -7  -3    7.00    2.70
  -1   7  -4   13.40    4.60
  -1   7  -4   10.90    2.50
   1   7   4   13.90    3.20
   1   7   4   15.00    3.20
  -1  -7  -4   10.40    3.40
   1  -7   4   14.00    3.40
   1  -7   4    8.70    3.30
  -1  -7  -4   12.60    2.60
   1   7   5   -1.50    1.60
  -1   7  -5   -2.10    2.60
  -1   7  -5   -0.60    1.20
   1  -7   5    3.20    2.20
   1  -7   5   -2.70    2.30
  -1  -7  -5    3.00    2.60
  -1   7  -6   18.00    5.30
  -1   7  -6   17.90    3.20
   1   7   6   16.20    3.50
  -1   7  -6    9.40    3.10
  -1  -7  -6   13.10    4.20
   1  -7   6   18.20    4.60
   1  -7   6   12.10    3.70
   1   7   7   18.40    3.40
  -1   7  -7    9.30    6.70
  -1   7  -7   13.40    3.20
  -1   7  -7   12.50    3.50
  -1   7  -7   11.00    4.70
  -1  -7  -7    7.00    4.40
   1  -7   7   14.30    3.90
   1  -7   7   13.10    4.30
  -1   7  -8    5.80    5.80
  -1   7  -8   13.30    4.00
  -1   7  -8   11.00    5.20
  -1   7  -8   12.00    3.70
  -1  -7  -8   13.10    4.40
   1  -7   8    9.40    3.90
   1  -7   8   11.60    3.70
  -1   7  -9    0.00    4.90
  -1   7  -9    0.70    2.70
  -1   7  -9   -5.00    2.90
   1  -7   9   -4.00    2.20
  -1  -7  -9    2.30    3.60
   1  -7   9    0.40    2.70
  -1   7 -10   -1.40    5.20
  -1   7 -10    1.70    3.80
   1  -7  10    6.60    3.00
  -1  -7 -10    4.90    3.90
  -1   7 -11    8.10    4.80
  -1   7 -11    3.60    6.10
   1  -7  11    1.90    2.50
  -1  -7 -11    9.60    5.20
  -1   7 -12    2.80    4.60
  -1   7 -12    9.80    8.00
   1  -7  12    9.10    3.40
  -1  -7 -12    7.50    5.20
  -1   7 -13   -1.10    4.70
  -1   7 -13    4.40    8.00
  -1  -7 -13    4.40    4.80
   1  -7  13    0.20    2.60
  -1   8  12    2.70    3.00
   1   8 -12    2.90    4.60
   1   8 -12    1.00    7.00
   1  -8 -12   -0.60    4.00
  -1  -8  12    6.30    3.40
   1   8 -11    8.30    5.20
   1   8 -11   -0.60    5.80
  -1   8  11    3.60    2.90
  -1  -8  11    3.30    3.10
   1  -8 -11   -2.60    3.50
  -1   8  10    5.10    2.90
   1   8 -10    2.50    6.50
   1   8 -10   -1.80    3.80
  -1  -8  10    1.50    5.40
   1  -8 -10    7.40    4.10
  -1  -8  10    2.00    3.20
   1   8  -9   69.29   18.00
   1   8  -9   70.09   14.00
  -1   8   9   80.29   11.50
   1  -8  -9  106.79   13.30
  -1  -8   9   90.89   12.40
  -1  -8   9   96.19   13.10
  -1   8   8   58.09    8.40
   1   8  -8   47.30    8.10
   1   8  -8   59.79   14.80
   1   8  -8   44.80   10.10
  -1  -8   8   59.09    8.70
  -1  -8   8   54.59    9.20
   1  -8  -8   48.20    8.80
  -1   8   7    2.40    2.60
   1   8  -7   -1.50    2.20
   1   8  -7    0.40    3.60
  -1  -8   7   -0.60    2.60
   1  -8  -7   -0.30    2.90
  -1  -8   7   -1.00    3.20
  -1   8   6   -0.30    2.10
   1   8  -6   -2.60    2.70
  -1  -8   6    0.20    2.30
   1  -8  -6   -4.80    2.00
  -1  -8   6    3.00    3.20
  -1   8   5    0.10    1.90
   1   8  -5   -0.50    1.40
  -1   8   5    3.70    2.50
   1   8  -5    5.10    3.20
   1   8  -5   -0.60    3.00
  -1  -8   5   -1.90    2.20
  -1  -8   5    3.00    3.10
   1  -8  -5    0.30    2.30
  -1   8   4   69.19    9.50
   1   8  -4   63.69    8.80
   1   8  -4   92.79   10.90
  -1   8   4   74.59    9.70
   1   8  -4   67.59   11.10
  -1  -8   4   69.89    9.90
  -1  -8   4   56.59    9.90
   1   8  -3   32.80    6.00
  -1   8   3   25.30    4.90
   1   8  -3   29.40    6.70
  -1   8   3   26.90    5.10
   1   8  -3   30.10    4.50
   1  -8  -3   25.80    4.50
  -1  -8   3   37.40    6.20
  -1  -8   3   34.80    5.90
   1   8  -2    6.10    3.70
  -1   8   2    0.00    2.10
  -1   8   2    3.60    1.70
   1   8  -2    5.50    3.00
   1   8  -2    0.80    1.60
   1  -8  -2    0.10    1.60
  -1  -8   2   -0.50    2.50
  -1  -8   2    1.10    2.30
  -1   8   1    3.50    3.40
  -1   8   1    4.40    2.00
  -1   8   1   12.10    3.50
   1   8  -1    3.10    1.90
   1   8  -1    6.10    3.40
   1   8  -1    3.50    2.80
   1  -8  -1    0.90    2.10
  -1  -8   1    8.40    2.80
  -1  -8   1    3.50    2.60
   1   8   0    6.60    3.10
  -1   8   0    7.50    3.00
   1   8   0   10.50    4.10
  -1   8   0    7.90    2.30
   1   8   0    5.80    2.40
  -1   8   0   12.20    4.30
   1  -8   0   12.10    3.40
  -1  -8   0    6.40    2.90
   1   8   1   96.29   13.00
   1   8   1  109.29   13.60
  -1   8  -1  113.99   13.00
   1   8   1  116.29   15.10
  -1   8  -1  110.09   15.00
   1  -8   1  100.99   13.50
  -1  -8  -1  110.19   13.50
   1  -8   1  110.69   13.30
  -1   8  -2   58.59   10.30
   1   8   2   83.39    9.80
   1   8   2   59.09    9.60
  -1   8  -2   67.89    9.00
   1  -8   2   71.99    9.80
   1  -8   2   76.99   10.40
  -1  -8  -2   67.49    9.40
  -1   8  -3   -0.20    1.40
   1   8   3    1.90    2.30
   1   8   3   -0.20    1.80
   1  -8   3   -2.80    2.30
  -1  -8  -3    1.20    2.00
  -1  -8  -3    1.10    1.70
   1  -8   3    1.70    2.30
   1   8   4   -0.40    2.10
   1   8   4    1.80    2.10
  -1   8  -4    3.50    1.80
  -1   8  -4   -1.00    2.80
  -1  -8  -4    0.10    2.20
   1  -8   4   -1.70    2.10
   1  -8   4    2.80    3.00
  -1   8  -5    9.50    2.80
  -1   8  -5   12.70    4.70
   1   8   5   22.00    4.40
   1   8   5   16.00    3.60
   1  -8   5   15.70    4.10
  -1  -8  -5   14.20    4.20
   1  -8   5   13.30    4.20
   1   8   6    5.60    2.40
   1   8   6    0.70    2.70
  -1   8  -6    0.50    3.40
  -1   8  -6    1.40    2.50
  -1   8  -6    3.00    1.90
   1  -8   6   10.60    3.40
   1  -8   6    2.80    3.30
  -1  -8  -6    5.00    3.10
   1   8   7  204.88   22.80
  -1   8  -7  195.08   22.60
  -1   8  -7  143.79   21.90
  -1   8  -7  190.38   24.50
   1   8   7  192.58   22.20
  -1  -8  -7  227.28   23.60
   1  -8   7  215.08   23.60
   1  -8   7  196.28   22.90
  -1   8  -8   -0.30    5.50
   1   8   8    7.30    3.20
  -1   8  -8    8.30    4.50
   1  -8   8    8.40    3.40
  -1  -8  -8    5.60    3.60
   1  -8   8   -1.50    3.10
  -1   8  -9    4.70    6.60
  -1   8  -9    1.40    3.90
   1   8   9    4.60    2.90
  -1  -8  -9    4.20    4.00
   1  -8   9    5.10    3.30
   1  -8   9   -0.70    3.00
  -1   8 -10    6.20    4.30
   1   8  10   -1.40    2.40
  -1   8 -10    2.10    6.60
   1  -8  10    2.70    2.90
  -1  -8 -10    0.30    3.70
   1   8  11    6.80    3.40
  -1   8 -11    0.70    7.30
  -1   8 -11   11.80    5.60
   1  -8  11   11.10    3.90
  -1  -8 -11   19.70    5.80
  -1   8 -12    4.80    5.10
   1   8  12    4.30    3.40
  -1   8 -12    2.50    7.40
   1   9 -11    2.70    5.00
  -1   9  11   -0.20    3.00
   1   9 -11    0.80    7.10
   1   9 -10   -2.70    5.70
  -1   9  10   -1.10    2.60
   1   9 -10    4.80    5.20
  -1  -9  10   -0.30    3.10
  -1  -9  10   -1.60    3.60
   1  -9 -10    0.90    4.10
   1   9  -9   11.40    5.40
   1   9  -9   10.50    8.10
  -1   9   9   10.30    3.70
  -1  -9   9    7.40    3.70
  -1  -9   9   10.80    4.90
   1  -9  -9    8.30    4.00
   1   9  -8   42.40   13.10
   1   9  -8   46.20   10.20
  -1   9   8   50.59    7.90
  -1  -9   8   52.59    8.60
   1  -9  -8   56.29    9.10
  -1  -9   8   50.09    9.10
  -1   9   7    1.50    2.50
   1   9  -7    6.00    4.20
   1  -9  -7    1.80    2.90
  -1  -9   7   -4.00    2.80
  -1  -9   7   -0.90    3.00
   1   9  -6    5.10    4.40
  -1   9   6    1.00    2.30
  -1  -9   6   -3.20    2.80
  -1  -9   6   -2.20    2.70
   1   9  -5    0.60    3.30
  -1   9   5    0.20    2.20
  -1  -9   5    2.50    2.90
  -1  -9   5    1.80    2.80
   1   9  -4   14.60    5.70
   1   9  -4   19.30    5.60
  -1   9   4   15.60    3.90
   1   9  -4   19.00    3.50
  -1  -9   4    9.00    4.00
  -1  -9   4   18.20    4.70
   1   9  -3   17.50    4.90
   1   9  -3   19.00    3.70
   1   9  -3   24.90    6.10
  -1   9   3   21.90    4.50
  -1  -9   3   12.00    4.50
  -1  -9   3   22.70    5.00
   1  -9  -3   20.30    3.80
   1   9  -2    1.80    2.80
   1   9  -2    1.00    2.00
   1   9  -2    7.00    4.10
  -1   9   2    3.00    2.20
  -1  -9   2    2.90    3.00
   1  -9  -2    2.10    2.20
  -1  -9   2    2.60    2.80
  -1   9   1   13.40    4.10
   1   9  -1   16.50    4.80
  -1   9   1    6.50    2.80
   1   9  -1    5.10    2.50
   1   9  -1    6.50    3.50
  -1  -9   1    5.60    3.20
   1  -9  -1    3.50    2.60
   1   9   0    4.70    2.40
   1   9   0    9.00    3.60
  -1   9   0    2.10    3.30
  -1   9   0    8.80    2.70
   1   9   0    8.00    4.10
   1  -9   0    2.10    2.70
  -1  -9   0    2.30    3.00
  -1   9  -1  133.39   14.60
   1   9   1  126.99   14.70
   1   9   1  112.29   16.40
   1   9   1  100.29   15.40
  -1  -9  -1  119.89   15.00
   1  -9   1  116.49   15.10
   1   9   2   85.49   11.60
  -1   9  -2   72.69   10.30
   1   9   2   72.79   10.70
   1  -9   2   93.59   12.00
  -1  -9  -2   93.19   10.70
   1  -9   2   69.39   10.70
  -1   9  -3    1.80    3.40
  -1   9  -3    1.50    1.80
   1   9   3   -0.80    2.20
   1   9   3    2.30    2.40
  -1  -9  -3    0.50    2.00
   1  -9   3   -2.60    2.60
   1  -9   3    2.90    2.70
  -1   9  -4    5.80    4.40
   1   9   4    3.10    2.50
  -1   9  -4    4.80    2.40
   1   9   4    4.20    2.70
   1  -9   4    7.00    3.20
   1  -9   4    1.90    3.00
   1   9   5    0.70    2.60
   1   9   5   -1.50    2.00
  -1   9  -5    1.70    3.40
  -1   9  -5    3.00    2.10
   1  -9   5    0.70    2.60
   1  -9   5    0.90    2.90
  -1  -9  -5    3.40    3.10
  -1   9  -6  249.18   27.70
  -1   9  -6  205.78   29.60
   1   9   6  240.38   27.90
   1   9   6  244.98   28.20
   1  -9   6  245.68   28.80
  -1  -9  -6  257.07   28.50
  -1   9  -7   11.10    5.30
  -1   9  -7    6.20    7.20
   1   9   7    8.20    2.80
   1   9   7    7.30    3.40
   1  -9   7    6.60    3.60
   1  -9   7   15.50    4.60
  -1  -9  -7   10.20    4.10
  -1   9  -8    0.70    3.70
  -1   9  -8    2.90    7.00
   1   9   8    2.10    2.80
  -1  -9  -8    6.90    4.00
   1  -9   8   -0.20    3.40
   1  -9   8   -0.80    2.50
  -1   9  -9    4.00    6.80
  -1   9  -9   -5.00    3.50
   1   9   9    2.30    3.00
  -1  -9  -9    4.10    3.50
   1  -9   9    0.40    3.20
   1  -9   9   -1.40    2.40
  -1   9 -10    0.60    6.90
   1   9  10    2.30    2.70
  -1   9 -10    4.20    4.60
   1  -9  10   -3.60    3.30
  -1  -9 -10    0.20    3.90
   1  -9  10    4.80    3.30
   1  10  -9    0.90    5.10
  -1  10   9   -2.20    2.70
   1  10  -9    5.00    8.20
  -1 -10   9    2.20    4.10
  -1 -10   9    2.00    3.10
  -1  10   8   43.30    6.90
   1  10  -8   42.50    9.90
   1  10  -8   33.60   12.70
  -1 -10   8   35.00    7.00
  -1 -10   8   34.50    7.70
  -1  10   7    2.00    2.80
   1  10  -7    2.90    4.20
  -1 -10   7    3.10    3.90
  -1 -10   7    3.70    3.30
   1  10  -6    1.80    3.90
  -1  10   6   -0.10    2.80
  -1 -10   6    1.40    3.20
  -1 -10   6   -2.30    3.10
   1  10  -5    6.90    5.00
  -1  10   5    7.80    3.30
  -1 -10   5    2.00    3.30
  -1 -10   5    5.50    4.00
   1  10  -4   18.60    7.00
  -1  10   4   32.80    5.90
  -1 -10   4   36.20    6.50
  -1 -10   4   35.10    6.90
  -1  10   3  136.39   16.10
   1  10  -3  127.39   15.50
  -1 -10   3  123.79   17.40
  -1  10   2   -1.20    2.20
   1  10  -2   14.10    4.70
   1  10  -2    5.30    2.40
  -1 -10   2   -2.20    2.70
   1 -10  -2    2.10    2.40
   1  10  -1    0.10    2.00
   1  10  -1    3.40    3.40
  -1  10   1    0.50    2.20
   1  10  -1    1.50    3.50
   1 -10  -1    0.70    2.20
  -1 -10   1   -4.20    2.20
   1  10   0   -1.90    2.10
   1  10   0   -2.00    3.70
  -1  10   0    1.80    2.40
   1  10   0    5.10    3.80
  -1 -10   0    6.50    3.30
   1 -10   0    8.20    3.10
   1  10   1   84.59   12.30
  -1  10  -1   77.89   11.20
   1  10   1  105.89   12.00
  -1 -10  -1   90.99   12.00
   1 -10   1   76.59   11.90
  -1  10  -2   74.09    9.10
   1  10   2   66.69    9.90
   1  10   2   61.49    9.10
  -1  10  -2   48.40   10.90
   1 -10   2   68.59   10.20
  -1 -10  -2   59.89    9.00
  -1  10  -3   -1.40    2.00
   1  10   3   -0.80    2.40
  -1  10  -3   -1.00    3.90
   1  10   3   -2.10    2.60
   1 -10   3   -4.80    2.80
   1  10   4    2.80    2.90
  -1  10  -4    1.40    2.30
   1  10   4    1.80    2.60
  -1  10  -4    0.40    4.10
   1 -10   4    1.30    2.90
   1 -10   4   -1.80    3.00
   1  10   5   -3.40    2.50
  -1  10  -5    0.20    3.90
  -1  10  -5    2.00    2.60
   1  10   5    2.70    2.80
   1 -10   5    0.80    3.20
   1 -10   5    2.30    3.00
  -1  10  -6   -2.80    3.20
   1  10   6   -2.40    2.50
   1 -10   6   -0.90    3.20
   1 -10   6    1.80    2.60
  -1  10  -7    5.40    4.50
   1  10   7    0.90    3.10
  -1  10  -7    4.30    6.70
   1 -10   7    1.10    3.10
   1 -10   7    3.00    3.00
   1  10   8   -1.00    2.70
  -1  10  -8   -1.00    7.10
  -1  10  -8   -1.60    4.10
   1 -10   8    6.60    4.00
   1 -10   8   -2.10    2.80
   1  11  -6    2.90    4.60
  -1  11   6    4.90    3.50
  -1 -11   6    3.70    4.40
  -1 -11   6    5.60    3.70
  -1  11   5   12.70    4.30
   1  11  -5   17.50    6.60
  -1 -11   5   14.30    4.90
   1  11  -4   71.79   14.00
  -1  11   4   88.49   11.70
  -1 -11   4   85.49   12.70
   1  11  -3    2.80    3.60
  -1  11   3   -2.70    2.50
  -1 -11   3   -1.80    3.10
  -1  11   2    1.80    2.70
   1  11  -2    5.30    2.80
  -1 -11   2   -2.60    2.70
  -1  11   1   -0.60    2.40
   1  11  -1    2.30    2.40
  -1 -11   1    2.10    3.10
   1 -11  -1    2.20    2.60
   1  11   0    3.90    2.70
  -1  11   0   -0.30    2.50
  -1 -11   0    4.70    3.00
   1 -11   0   -1.10    2.40
  -1  11  -1   14.60    6.00
  -1  11  -1   19.50    4.30
   1  11   1   21.70    4.60
  -1 -11  -1   26.90    4.90
   1 -11   1   14.30    4.40
   1  11   2    8.80    3.60
  -1  11  -2   13.60    5.60
  -1  11  -2    9.90    3.30
   1 -11   2    4.00    3.10
   1  11   3   -3.60    2.40
  -1  11  -3    0.00    4.20
  -1  11  -3   -3.10    2.30
   1 -11   3   -4.00    2.90
   1  11   4   -4.70    2.40
  -1  11  -4    3.00    4.80
  -1  11  -4    4.50    2.80
   1 -11   4    3.90    3.80
  -1  11  -5    5.20    4.90
   1  11   5    7.40    3.70
   1 -11   5    8.10    4.20
  -1  11  -6   12.40    6.20
   1  11   6   15.00    4.50
   1 -11   6   13.90    5.10
   1 -11   6   12.10    4.10
   2   0 -16   -8.00    4.20
   2   0 -16   -5.80    3.90
   2   0 -16   -7.50    6.60
   2   0 -15   -1.80    5.50
   2   0 -15   -2.00    3.80
   2   0 -15   10.00    5.40
   2   0 -15   -1.30    5.70
   2   0 -14    2.80    4.80
   2   0 -14   -3.10    3.60
   2   0 -14    6.20    6.60
   2   0 -14    6.90    4.40
   2   0 -13    6.30    3.50
   2   0 -13   -1.10    3.90
   2   0 -13   -0.20    5.10
   2   0 -13    0.00    2.80
   2   0 -13   -2.20    3.50
   2   0 -12  238.08   35.50
   2   0 -12  321.37   31.70
   2   0 -12  233.68   32.10
   2   0 -12  292.17   32.80
   2   0 -12  324.27   33.30
   2   0 -11    0.00    2.10
   2   0 -11   -0.20    1.80
   2   0 -11    6.30    3.10
   2   0 -11    3.20    3.30
   2   0 -11    0.90    2.80
   2   0 -11   -0.70    3.70
   2   0 -10   13.30    6.40
   2   0 -10   11.10    3.00
   2   0 -10   22.50    4.20
   2   0 -10    8.80    4.10
   2   0 -10   16.20    4.30
   2   0 -10    9.70    3.50
  -2   0  10   18.20    2.70
   2   0  -9   -0.80    1.30
   2   0  -9   -1.30    2.40
   2   0  -9    1.00    2.70
   2   0  -9   -0.60    1.90
   2   0  -9    1.50    1.80
   2   0  -9   -0.20    1.70
  -2   0   9    0.50    0.90
   2   0  -8  373.06   37.90
   2   0  -8  316.07   40.60
   2   0  -8  369.46   38.70
  -2   0   8  329.57   37.50
   2   0  -8  277.67   38.20
   2   0  -8  370.36   38.10
  -2   0   8  354.16   37.30
   2   0  -8  337.37   38.60
   2   0  -7    0.30    1.90
   2   0  -7    0.00    1.00
   2   0  -7   -0.40    1.30
  -2   0   7   -0.10    0.80
   2   0  -7   -1.40    1.80
   2   0  -7   -0.60    1.40
  -2   0   7   -0.70    0.70
   2   0  -7   -1.00    1.00
   2   0  -6   70.49    9.20
   2   0  -6   59.49    8.60
  -2   0   6   63.09    7.50
   2   0  -6   61.99    8.20
   2   0  -6   70.09    7.80
   2   0  -6   67.09    9.70
   2   0  -5   -0.20    0.90
   2   0  -5    0.60    1.00
   2   0  -5    0.00    0.60
  -2   0   5    1.20    0.60
   2   0  -5    0.30    0.70
   2   0  -5    2.20    2.00
   2   0  -5    0.50    1.50
   2   0  -4  123.09   14.40
   2   0  -4  143.49   14.40
  -2   0   4  122.29   14.30
   2   0  -3    0.40    0.60
  -2   0   3   -0.50    0.50
   2   0  -3   -0.50    0.40
  -2   0   2 8674.33 1015.60
   2   0  -2 9999.00 1015.80
  -2   0   1    0.10    0.40
  -2   0   0 1140.79  124.19
  -2   0  -1    0.10    0.10
  -2   0  -1    0.90    0.60
   2   0   2   16.00    1.80
  -2   0  -2   15.60    2.30
  -2   0  -3    0.10    0.30
  -2   0  -3    1.90    1.00
   2   0   3    0.20    0.30
  -2   0  -4   94.39   11.30
  -2   0  -4  113.29   10.80
  -2   0  -4   84.49   11.20
  -2   0  -4   93.39   11.20
   2   0   4   90.99   10.70
  -2   0  -5   -0.80    0.70
  -2   0  -5   -1.10    1.00
  -2   0  -5   -1.10    1.30
  -2   0  -5    0.70    1.20
   2   0   5   -0.70    0.50
  -2   0  -5    1.50    2.00
  -2   0  -5    1.10    1.10
  -2   0  -5    0.60    1.10
   2   0   5    0.20    0.40
  -2   0  -6   32.70    4.90
   2   0   6   29.00    3.40
  -2   0  -6   28.40    4.80
  -2   0  -6   23.20    4.00
  -2   0  -6   25.50    6.10
   2   0   6   23.50    3.20
  -2   0  -6   26.60    4.60
  -2   0  -6   32.70    4.40
  -2   0  -7    1.00    1.80
   2   0   7    0.20    0.80
  -2   0  -7    2.30    3.10
   2   0   7   -1.00    0.50
  -2   0  -7   -2.20    1.40
  -2   0  -7    1.20    1.80
  -2   0  -7    0.70    1.90
  -2   0  -7   -1.30    1.40
  -2   0  -8  592.74   62.89
  -2   0  -8  505.85   62.89
  -2   0  -8  523.85   65.09
  -2   0  -8  573.04   62.69
   2   0   8  608.54   61.79
  -2   0  -8  556.24   62.89
  -2   0  -8  569.84   62.69
  -2   0  -9    0.40    2.30
   2   0   9    0.50    0.90
  -2   0  -9    0.40    1.90
  -2   0  -9   -0.50    2.30
  -2   0  -9   -1.90    2.00
  -2   0  -9    0.40    3.50
  -2   0  -9   -2.00    1.90
  -2   0 -10   -1.50    3.60
  -2   0 -10    0.70    2.90
  -2   0 -10   -2.50    2.00
  -2   0 -10    1.40    2.60
  -2   0 -10    0.60    2.10
  -2   0 -11    0.70    2.60
  -2   0 -11    0.00    4.30
  -2   0 -11   -1.30    2.90
  -2   0 -11   -1.70    2.50
  -2   0 -11   -0.90    2.70
  -2   0 -12  136.59   19.90
  -2   0 -12  170.28   19.80
  -2   0 -12  170.38   19.40
  -2   0 -12  144.79   22.90
  -2   0 -12  162.48   20.60
  -2   0 -13    5.20    4.70
  -2   0 -13   -1.60    4.10
  -2   0 -13    1.70    3.20
  -2   0 -13   -2.00    5.10
  -2   0 -13   -4.30    3.00
  -2   0 -14    3.30    4.20
  -2   0 -14    1.30    6.40
  -2   0 -14    5.00    4.40
  -2   0 -14    3.30    5.20
  -2   0 -15   -6.00    6.50
  -2   0 -15    1.30    4.20
  -2   0 -15    2.10    5.80
  -2   0 -16   -3.90    5.30
  -2   0 -16   -4.00    8.20
   2   1 -16   41.00    9.20
   2   1 -16   36.50   12.50
   2   1 -16   28.70    7.80
   2  -1 -16   37.40    8.20
   2  -1 -16   45.30    9.50
   2  -1 -16   38.90   12.80
   2  -1 -16   37.20    9.20
   2   1 -15   -1.00    4.30
   2   1 -15   -0.70    3.70
   2   1 -15   -1.00    5.30
   2  -1 -15   -0.30    4.00
   2  -1 -15   -6.40    4.40
   2  -1 -15    2.50    4.70
   2  -1 -15   -1.20    6.50
   2   1 -14    0.70    5.30
   2   1 -14   -3.70    2.90
   2   1 -14    0.90    3.70
   2   1 -14   -1.00    4.60
   2  -1 -14    1.10    3.70
   2  -1 -14    1.20    4.80
   2  -1 -14   -1.30    3.60
   2  -1 -14   -1.20    5.90
   2   1 -13    9.20    5.20
   2   1 -13    0.40    3.20
   2   1 -13    2.10    5.10
   2   1 -13    2.80    3.50
   2   1 -13    5.40    4.40
   2  -1 -13    7.30    4.00
   2  -1 -13   -1.80    4.60
   2  -1 -13    7.60    4.90
   2  -1 -13   11.30    3.30
   2  -1 -13    3.90    4.60
   2   1 -12   30.10    6.80
   2   1 -12   25.50    9.20
   2   1 -12   26.50    5.60
   2   1 -12   37.30    7.50
   2   1 -12   30.30    7.40
   2  -1 -12   45.40    7.70
   2  -1 -12   32.10    6.20
   2  -1 -12   30.40    9.00
   2  -1 -12   32.60    5.60
   2  -1 -12   28.80    6.40
   2  -1 -12   30.00    7.10
   2   1 -11   16.30    7.40
   2   1 -11    7.80    3.60
   2   1 -11   13.50    3.50
   2   1 -11    8.70    3.50
   2   1 -11   25.50    5.70
   2  -1 -11    7.90    3.40
   2  -1 -11    9.40    4.20
   2  -1 -11   17.40    4.80
   2  -1 -11   11.30    5.80
   2  -1 -11   14.80    4.10
   2  -1 -11   13.60    3.20
  -2  -1  11   16.50    4.00
   2   1 -10    0.20    2.30
   2   1 -10   -2.80    1.90
  -2   1  10    1.20    1.20
   2   1 -10    0.80    4.20
   2   1 -10    4.30    3.40
   2   1 -10    1.90    1.80
   2  -1 -10    1.80    2.50
   2  -1 -10    0.00    2.00
   2  -1 -10   -3.10    1.50
   2  -1 -10   -2.70    2.30
   2  -1 -10    0.80    1.70
   2  -1 -10    0.40    2.70
  -2  -1  10    2.60    1.30
  -2  -1  10   -1.00    1.10
   2   1  -9    0.70    1.60
   2   1  -9   -0.30    1.90
   2   1  -9    2.10    2.50
   2   1  -9   -0.90    1.90
   2   1  -9   -1.90    2.50
   2   1  -9    0.60    3.20
  -2   1   9    1.90    1.10
   2  -1  -9    0.40    1.50
   2  -1  -9    0.50    2.00
   2  -1  -9    1.00    2.70
  -2  -1   9    1.20    1.10
  -2  -1   9    0.40    1.10
   2  -1  -9   -0.20    1.40
   2  -1  -9   -0.90    2.00
   2  -1  -9    0.80    1.80
   2   1  -8   30.50    4.40
   2   1  -8   24.80    4.00
   2   1  -8   33.80    5.80
  -2   1   8   25.70    3.50
   2   1  -8   20.10    4.90
   2   1  -8   24.40    7.20
   2   1  -8   29.60    5.20
   2  -1  -8   24.70    3.90
   2  -1  -8   21.50    4.50
   2  -1  -8   22.10    4.20
  -2  -1   8   30.00    3.70
   2  -1  -8   29.20    5.40
   2  -1  -8   19.00    4.10
   2  -1  -8   23.40    6.40
  -2  -1   8   24.00    3.50
   2   1  -7  161.08   17.90
  -2   1   7  149.69   17.60
   2   1  -7  168.48   18.60
   2   1  -7  167.48   18.00
   2   1  -7  144.89   20.70
   2   1  -7  141.19   18.60
   2   1  -7  153.18   18.70
  -2  -1   7  150.88   17.60
  -2  -1   7  179.68   17.80
   2  -1  -7  150.08   19.80
   2  -1  -7  176.48   18.30
   2  -1  -7  134.29   18.00
   2  -1  -7  179.18   18.00
   2  -1  -7  163.38   18.60
   2  -1  -7  149.09   18.50
   2   1  -6  139.09   16.90
   2   1  -6  153.18   16.30
   2   1  -6  152.48   19.00
   2   1  -6  148.99   17.10
  -2   1   6  137.09   16.10
   2   1  -6  159.58   16.90
   2  -1  -6  118.69   16.40
  -2  -1   6  147.49   16.10
   2  -1  -6  159.18   16.30
  -2  -1   6  144.69   16.10
   2  -1  -6  130.29   17.70
   2  -1  -6  141.89   16.90
   2  -1  -6  152.88   16.50
   2  -1  -6  150.58   16.90
   2   1  -5   11.80    2.40
   2   1  -5   11.10    4.00
   2   1  -5   12.60    3.00
   2   1  -5   11.00    1.80
   2   1  -5    9.20    2.40
  -2   1   5    9.00    1.60
   2  -1  -5    5.30    2.60
   2  -1  -5    6.20    2.00
  -2  -1   5   10.10    1.70
  -2  -1   5    8.50    1.50
   2  -1  -5   11.40    1.80
   2  -1  -5    7.30    2.10
   2  -1  -5    7.60    2.10
   2   1  -4   58.19    7.50
   2   1  -4   75.09    7.60
  -2   1   4   75.69    7.50
   2  -1  -4   59.89    7.50
  -2  -1   4   62.39    7.50
   2   1  -3 2509.55  295.37
   2   1  -3 2828.12  295.47
  -2  -1   3 2678.33  295.37
   2  -1  -3 2839.42  295.37
   2   1  -2 6986.40  745.33
  -2  -1   2 6714.13  745.33
   2   1  -1  375.16   40.50
  -2  -1   1  365.66   40.40
   2   1   0   14.70    1.70
  -2  -1   0   14.30    1.80
  -2  -1   0   14.50    1.70
  -2   1  -1  392.86   43.60
   2   1   1  408.36   43.50
  -2  -1  -1  391.46   43.70
  -2  -1  -1  402.96   43.50
  -2   1  -2  105.19   11.60
   2   1   2   98.59   11.20
  -2   1  -2  111.89   11.30
  -2  -1  -2   97.49   11.60
   2  -1   2  102.19   11.30
  -2   1  -3 1483.05  153.08
  -2   1  -3 1395.26  153.48
   2   1   3 1383.16  153.08
  -2  -1  -3 1337.87  153.38
   2  -1   3 1423.66  153.08
  -2   1  -4   21.90    3.30
  -2   1  -4   32.60    6.20
   2  -1   4   14.30    2.20
  -2  -1  -4   23.50    3.20
  -2   1  -5    4.50    1.50
  -2   1  -5    5.90    2.30
  -2   1  -5    1.80    2.50
  -2   1  -5    7.40    1.90
  -2   1  -5    4.40    1.70
  -2   1  -5    6.30    1.10
   2   1   5    5.80    0.90
  -2   1  -5    3.20    1.50
  -2  -1  -5    7.80    1.90
   2  -1   5    6.50    1.30
   2  -1   5    4.70    1.00
  -2  -1  -5    4.20    2.40
  -2  -1  -5    5.90    1.80
  -2  -1  -5    6.30    1.90
  -2  -1  -5    5.10    1.60
  -2  -1  -5    3.70    1.50
  -2   1  -6    1.20    1.70
  -2   1  -6    3.80    2.00
  -2   1  -6    3.50    3.10
   2   1   6    4.90    1.00
  -2   1  -6    3.90    1.40
   2   1   6    4.80    0.90
  -2   1  -6    4.10    1.10
  -2   1  -6    7.50    2.00
  -2   1  -6    4.90    1.90
  -2  -1  -6    3.20    1.90
  -2  -1  -6   -0.50    1.50
   2  -1   6    5.40    1.30
  -2  -1  -6    4.70    2.60
  -2  -1  -6    2.50    1.50
  -2  -1  -6    4.90    1.70
  -2  -1  -6    4.90    1.80
   2  -1   6    2.10    0.90
  -2   1  -7  105.09   13.20
  -2   1  -7  100.09   15.50
  -2   1  -7  111.89   13.20
  -2   1  -7  104.89   13.00
  -2   1  -7   95.89   13.60
   2   1   7  122.79   12.20
   2   1   7  100.29   12.10
  -2  -1  -7  124.69   13.40
  -2  -1  -7  109.79   13.40
  -2  -1  -7  105.09   13.10
  -2  -1  -7  113.59   13.10
  -2  -1  -7  104.69   13.20
   2  -1   7  100.49   12.20
  -2  -1  -7  127.09   15.20
   2  -1   7  111.89   12.50
  -2   1  -8  845.92  100.39
  -2   1  -8  927.71   97.59
  -2   1  -8  871.21   97.29
  -2   1  -8  879.41   97.59
  -2   1  -8  729.23   97.69
   2   1   8  935.11   96.29
  -2   1  -8  899.11   97.39
  -2  -1  -8 1009.20   97.69
   2  -1   8  907.51   96.59
  -2  -1  -8  943.51   97.29
  -2  -1  -8  768.32   97.29
  -2  -1  -8  889.21   97.29
  -2  -1  -8  858.81   99.29
  -2  -1  -8  905.11   97.69
  -2   1  -9   36.50    6.60
  -2   1  -9   31.70    6.20
  -2   1  -9   43.40    7.70
  -2   1  -9   35.00    6.40
  -2   1  -9   36.90    9.70
  -2  -1  -9   27.80    5.80
  -2  -1  -9   44.60    9.70
  -2  -1  -9   50.89    7.40
  -2  -1  -9   43.30    6.50
  -2  -1  -9   41.90    7.00
  -2  -1  -9   37.20    6.90
   2  -1   9   38.10    5.10
  -2   1 -10   39.00    6.80
  -2   1 -10   39.20   10.70
  -2   1 -10   27.50    7.10
  -2   1 -10   41.10    7.00
  -2   1 -10   36.90    7.00
  -2  -1 -10   41.50    6.50
  -2  -1 -10   43.20    9.70
   2  -1  10   33.60    5.00
  -2  -1 -10   35.60    7.10
  -2  -1 -10   47.30    7.10
  -2  -1 -10   41.30    7.30
  -2  -1 -10   44.50    7.40
  -2   1 -11   -0.70    2.50
  -2   1 -11    1.20    2.90
  -2   1 -11    3.50    4.80
  -2   1 -11    0.00    2.40
  -2   1 -11    1.80    3.20
  -2  -1 -11   -1.00    2.70
  -2  -1 -11    2.40    4.80
  -2  -1 -11    4.10    2.90
  -2  -1 -11   -0.20    2.70
   2  -1  11    0.50    1.10
  -2  -1 -11    3.00    3.80
  -2   1 -12    3.20    3.70
  -2   1 -12   13.80    7.20
  -2   1 -12    8.00    4.00
  -2   1 -12    3.00    3.50
  -2   1 -12    2.40    3.70
  -2  -1 -12    8.60    7.00
  -2  -1 -12   15.00    5.40
  -2  -1 -12    8.90    4.10
  -2  -1 -12    7.10    4.20
  -2  -1 -12    7.70    3.30
  -2   1 -13   18.70    8.80
  -2   1 -13   21.50    6.30
  -2   1 -13   16.60    5.40
  -2   1 -13   20.00    5.70
  -2   1 -13   16.70    6.10
  -2  -1 -13   17.30    6.50
  -2  -1 -13   19.40    5.60
  -2  -1 -13   17.90    5.50
  -2  -1 -13   21.30    5.80
  -2  -1 -13   18.10    8.90
  -2   1 -14    5.40    5.40
  -2   1 -14   -3.20    3.40
  -2   1 -14    0.00    5.50
  -2  -1 -14   -7.80    4.30
  -2  -1 -14    3.10    4.10
  -2  -1 -14    0.90    7.10
  -2  -1 -14   -1.60    3.30
  -2   1 -15    1.60    6.30
  -2   1 -15    5.70    5.70
  -2   1 -15    2.10    4.10
  -2  -1 -15    2.00    4.20
  -2  -1 -15   -2.30    4.50
  -2  -1 -15    5.20    4.60
  -2  -1 -15    3.00    8.40
   2   2 -16   27.60    7.70
   2   2 -16   27.10   11.10
   2   2 -16   30.20    8.20
   2  -2 -16   42.30    7.60
   2  -2 -16   39.80    8.60
   2  -2 -16   14.10    8.20
   2  -2 -16   25.40   11.40
   2   2 -15   -2.20    5.70
   2   2 -15   -4.20    4.30
   2   2 -15   -4.80    3.00
   2  -2 -15    3.10    5.60
   2  -2 -15   -1.70    6.70
   2  -2 -15   -5.40    4.00
   2  -2 -15    0.60    4.60
   2   2 -14   -2.70    5.00
   2   2 -14   -3.30    3.80
   2   2 -14   -2.60    3.20
   2  -2 -14   -7.40    3.30
   2  -2 -14   -3.20    3.40
   2  -2 -14   -1.20    6.40
   2  -2 -14   -0.40    4.80
   2   2 -13   37.90    8.90
   2   2 -13   52.49   14.30
   2   2 -13   52.89    9.70
   2   2 -13   64.39   11.60
   2   2 -13   56.89    9.90
   2  -2 -13   48.60   11.70
   2  -2 -13   60.09    7.90
   2  -2 -13   46.10    8.50
   2  -2 -13   54.79    9.70
   2  -2 -13   55.79    9.10
   2  -2 -13   36.10    8.60
   2   2 -12   28.70    7.60
   2   2 -12   28.50   10.80
   2   2 -12   30.20    7.60
   2   2 -12   47.60    6.90
   2  -2 -12   36.50    9.90
   2  -2 -12   56.89    9.00
   2  -2 -12   34.90    6.80
   2  -2 -12   40.60    7.00
   2  -2 -12   33.70    6.00
   2  -2 -12   44.30    8.00
   2   2 -11   -1.90    4.60
   2   2 -11   -0.70    2.10
   2   2 -11   -0.10    2.70
   2   2 -11   -2.10    2.40
   2   2 -11   -2.00    3.10
   2  -2 -11   -3.90    2.30
   2  -2 -11   -0.60    2.30
  -2  -2  11   -2.80    1.30
   2  -2 -11    5.20    3.10
   2  -2 -11    4.10    4.50
   2  -2 -11    1.00    2.90
   2  -2 -11   -2.40    1.60
   2   2 -10    7.00    3.10
   2   2 -10    4.30    2.30
   2   2 -10    2.80    2.70
   2   2 -10   -3.00    2.80
   2   2 -10    3.70    4.80
  -2   2  10    2.10    1.30
   2  -2 -10    4.60    2.10
  -2  -2  10    1.90    1.40
  -2  -2  10    0.70    1.50
   2  -2 -10    2.20    2.20
   2  -2 -10    4.20    3.30
   2  -2 -10    0.70    3.20
   2  -2 -10    2.50    2.60
   2  -2 -10   -2.30    2.00
   2   2  -9   29.20    4.70
   2   2  -9   28.70    5.60
  -2   2   9   26.70    4.00
   2   2  -9   32.80    6.40
   2   2  -9   20.30    5.40
   2   2  -9   23.60    8.10
   2  -2  -9   29.30    5.00
   2  -2  -9   44.60    6.80
   2  -2  -9   27.00    6.80
  -2  -2   9   33.60    4.60
   2  -2  -9   32.60    4.70
   2  -2  -9   27.20    5.10
   2  -2  -9   17.70    5.00
  -2  -2   9   33.20    4.20
   2   2  -8    1.80    1.60
  -2   2   8    3.50    1.30
   2   2  -8   -0.50    3.10
   2   2  -8    2.80    2.60
   2   2  -8    6.50    2.70
   2   2  -8    0.50    2.00
   2  -2  -8   -1.40    1.80
   2  -2  -8    3.70    2.00
   2  -2  -8    0.80    1.30
   2  -2  -8    1.40    2.50
  -2  -2   8    3.90    1.60
   2  -2  -8    1.30    2.40
  -2  -2   8    1.00    1.10
   2  -2  -8    1.50    1.60
   2   2  -7  267.97   26.70
   2   2  -7  208.68   26.80
   2   2  -7  228.08   26.00
  -2   2   7  230.78   25.70
   2   2  -7  233.88   26.80
   2   2  -7  219.78   29.20
   2  -2  -7  259.97   26.80
  -2  -2   7  245.68   26.00
   2  -2  -7  234.88   25.90
   2  -2  -7  220.98   26.00
   2  -2  -7  218.08   26.30
   2  -2  -7  225.38   27.40
   2  -2  -7  247.88   26.70
  -2  -2   7  217.98   25.60
   2   2  -6  173.78   20.90
   2   2  -6  155.58   18.30
  -2   2   6  154.28   17.40
   2   2  -6  146.29   18.40
   2   2  -6  166.98   17.60
   2   2  -6  151.48   18.10
   2   2  -6  164.48   17.70
   2  -2  -6  163.18   18.20
  -2  -2   6  151.68   17.60
   2  -2  -6  167.48   17.60
   2  -2  -6  176.28   18.10
   2  -2  -6  139.09   18.10
  -2  -2   6  156.68   17.40
   2  -2  -6  147.09   17.60
   2  -2  -6  136.59   18.60
   2   2  -5   10.90    1.80
   2   2  -5   10.20    2.30
   2   2  -5    9.70    2.80
   2   2  -5    8.20    2.00
   2   2  -5   12.50    3.00
   2   2  -5    7.30    3.50
   2  -2  -5   10.10    2.50
   2  -2  -5    8.70    1.70
  -2  -2   5    8.10    1.60
   2  -2  -5    6.70    2.30
  -2  -2   5   10.20    1.90
   2  -2  -5   10.60    2.30
   2  -2  -5   10.80    2.80
   2   2  -4   63.29    7.80
   2   2  -4   50.49    6.90
   2   2  -4   57.39    7.30
   2   2  -4   58.09    6.60
   2   2  -4   54.39    6.90
  -2  -2   4   57.49    6.80
   2  -2  -4   49.50    7.00
   2  -2  -4   56.59    6.60
   2  -2  -4   57.39    7.30
  -2  -2   4   55.09    6.50
   2  -2  -4   67.29    7.10
   2   2  -3 1177.38  125.89
  -2  -2   3 1131.39  125.89
   2   2  -2  529.65   56.89
  -2  -2   2  510.75   56.79
   2   2  -1  268.47   29.50
  -2  -2   1  270.37   29.50
  -2   2   0  169.88   19.00
   2   2   0  174.98   19.00
  -2  -2   0  172.48   18.90
  -2   2  -1  251.67   26.90
   2   2   1  252.87   26.90
  -2  -2  -1  243.98   27.00
  -2  -2  -1  245.38   26.90
   2  -2   1  233.98   26.90
  -2   2  -2 1652.73  179.58
   2   2   2 1719.33  179.48
   2  -2   2 1622.34  179.58
  -2  -2  -2 1597.34  179.68
  -2   2  -3  146.69   19.10
  -2   2  -3  175.98   18.30
  -2   2  -3  162.78   18.00
  -2   2  -3  166.18   18.30
   2   2   3  160.68   17.90
  -2  -2  -3  194.68   18.30
  -2  -2  -3  156.08   18.20
  -2  -2  -3  135.49   18.50
   2  -2   3  167.78   18.30
   2  -2   3  152.68   18.00
  -2   2  -4   97.09   12.30
  -2   2  -4   96.39   10.20
  -2   2  -4   84.59   10.20
   2   2   4   84.09   10.00
  -2   2  -4   92.09    9.70
  -2   2  -4   76.69   10.60
  -2   2  -4   87.89   10.00
  -2   2  -4   87.39   10.00
  -2  -2  -4   81.19   10.00
  -2  -2  -4   77.09    9.90
   2  -2   4   86.39    9.70
   2  -2   4   85.29   10.00
  -2  -2  -4   77.49   10.40
  -2  -2  -4   89.99   10.00
   2   2   5    3.00    1.00
  -2   2  -5    7.20    1.70
  -2   2  -5    5.00    1.60
  -2   2  -5    5.30    3.30
  -2   2  -5    5.20    1.10
  -2   2  -5    3.40    2.00
  -2   2  -5    2.80    1.30
  -2   2  -5    4.40    1.90
   2   2   5    3.80    0.90
  -2  -2  -5    6.40    2.60
   2  -2   5    2.70    0.90
  -2  -2  -5    5.40    1.90
  -2  -2  -5    6.00    1.70
   2  -2   5    3.60    1.30
  -2  -2  -5    1.90    1.20
   2   2   6   48.70    6.00
  -2   2  -6   46.50    6.80
  -2   2  -6   48.90   10.00
  -2   2  -6   51.49    7.10
  -2   2  -6   50.79    8.10
   2   2   6   60.99    6.10
  -2   2  -6   61.29    7.40
  -2   2  -6   39.30    6.90
  -2  -2  -6   44.30    6.70
  -2  -2  -6   64.19    7.10
  -2  -2  -6   46.50    7.40
  -2  -2  -6   64.19    8.10
  -2  -2  -6   46.60    7.00
   2  -2   6   51.89    6.10
  -2  -2  -6   43.80    6.70
   2  -2   6   52.29    6.60
   2  -2   6   51.29    6.50
   2   2   7  173.68   18.60
  -2   2  -7  140.99   20.00
  -2   2  -7  158.48   19.50
  -2   2  -7  163.38   19.30
  -2   2  -7  169.08   19.60
  -2   2  -7  162.18   19.40
  -2   2  -7  150.48   22.20
   2  -2   7  163.98   18.60
  -2  -2  -7  176.58   19.40
  -2  -2  -7  171.88   19.30
   2  -2   7  160.68   18.90
  -2  -2  -7  187.38   19.60
  -2  -2  -7  161.78   19.80
  -2  -2  -7  179.28   19.40
  -2  -2  -7  178.68   20.90
  -2   2  -8   59.79    8.20
  -2   2  -8   41.60    8.00
  -2   2  -8   58.09    7.50
  -2   2  -8   49.50    7.40
  -2   2  -8   47.80   10.90
  -2   2  -8   39.20    7.10
  -2  -2  -8   50.69    9.10
  -2  -2  -8   64.59    7.70
   2  -2   8   46.90    6.40
  -2  -2  -8   53.29    8.00
  -2  -2  -8   38.80    7.10
   2  -2   8   49.70    6.30
  -2  -2  -8   51.79    7.60
  -2  -2  -8   59.79    7.50
  -2   2  -9   24.50    4.90
  -2   2  -9   15.70    4.40
  -2   2  -9   19.70    4.00
  -2   2  -9   21.20    5.40
  -2   2  -9   16.00    4.30
  -2   2  -9   17.80    7.40
  -2  -2  -9   19.70    4.40
  -2  -2  -9   23.30    6.40
  -2  -2  -9   11.10    4.30
   2  -2   9   20.70    3.30
  -2  -2  -9   20.60    4.80
  -2  -2  -9   18.70    4.00
  -2  -2  -9   19.80    4.20
  -2   2 -10   25.30    9.10
  -2   2 -10   28.70    5.50
  -2   2 -10   28.90    5.90
  -2   2 -10   20.50    5.80
  -2   2 -10   26.30    5.20
  -2   2 -10   19.40    4.70
  -2  -2 -10   24.00    7.70
  -2  -2 -10   20.50    5.40
  -2  -2 -10   23.20    5.30
  -2  -2 -10   27.50    5.00
   2  -2  10   24.80    3.90
  -2  -2 -10   26.90    5.50
  -2  -2 -10   23.50    5.20
  -2   2 -11   -3.30    2.50
  -2   2 -11    1.50    5.10
  -2   2 -11   -7.60    2.30
  -2   2 -11   -0.50    2.90
  -2   2 -11   -0.40    2.70
  -2  -2 -11   -1.10    2.90
  -2  -2 -11    1.30    5.60
   2  -2  11    0.40    1.30
  -2  -2 -11    0.80    3.10
  -2  -2 -11    1.00    2.60
  -2  -2 -11    1.10    3.90
  -2  -2 -11    0.60    2.80
  -2   2 -12  119.29   15.40
  -2   2 -12   96.69   19.90
  -2   2 -12   85.79   14.40
  -2   2 -12   75.09   15.00
  -2   2 -12   96.09   15.00
  -2  -2 -12  111.79   15.00
  -2  -2 -12  105.29   15.40
  -2  -2 -12  125.19   14.90
  -2  -2 -12  132.09   18.90
  -2  -2 -12  119.39   14.60
  -2   2 -13   28.00   10.50
  -2   2 -13   34.60    7.40
  -2   2 -13   30.30    7.60
  -2  -2 -13   27.90    7.30
  -2  -2 -13   29.10    6.60
  -2  -2 -13   44.50    8.20
  -2  -2 -13   40.60   12.10
  -2   2 -14    5.70    4.30
  -2   2 -14   -2.80    3.50
  -2   2 -14   10.00    7.50
  -2  -2 -14    6.90    4.30
  -2  -2 -14    2.90    9.00
  -2  -2 -14    4.40    4.30
  -2  -2 -14    2.30    5.20
  -2   2 -15   -5.40    3.30
  -2   2 -15   -0.80    6.30
  -2   2 -15   -4.70    4.50
  -2  -2 -15  -13.30    8.30
  -2  -2 -15    3.30    5.00
  -2  -2 -15    1.60    3.40
  -2  -2 -15   -6.20    4.10
   2   3 -16    1.60    7.10
   2   3 -16   -0.10    4.40
   2   3 -16    0.10    4.10
   2  -3 -16    2.50    9.50
   2  -3 -16   -8.50    4.80
   2  -3 -16    0.10    4.10
   2   3 -15   -0.80    4.10
   2   3 -15   -1.60    3.80
   2   3 -15    4.60    7.20
   2  -3 -15   -1.40    4.70
   2  -3 -15   -0.10    8.40
   2  -3 -15   -6.20    3.20
   2   3 -14   10.80    8.40
   2   3 -14   11.00    5.50
   2   3 -14    8.00    4.70
   2  -3 -14   12.60    4.80
   2  -3 -14   12.90    4.60
   2  -3 -14   17.90    6.20
   2  -3 -14   12.90    6.10
   2  -3 -14   13.30    8.70
   2   3 -13  140.79   28.70
   2   3 -13  129.59   23.20
   2   3 -13  188.48   22.80
   2  -3 -13  154.68   21.60
   2  -3 -13  180.08   22.30
   2  -3 -13  208.98   21.60
  -2  -3  13  162.08   20.50
   2  -3 -13  194.68   21.10
   2  -3 -13  171.88   22.40
   2  -3 -13  216.18   26.20
   2   3 -12   80.09   14.40
   2   3 -12   75.09   13.70
   2   3 -12  107.69   13.10
   2   3 -12   76.39   18.20
  -2  -3  12   93.49   11.50
   2  -3 -12  117.49   12.60
   2  -3 -12   89.09   16.00
   2  -3 -12  105.09   12.50
   2  -3 -12   91.59   13.80
   2  -3 -12   89.09   13.20
   2  -3 -12   82.39   13.60
   2   3 -11   28.00    7.30
   2   3 -11   24.60    5.60
   2   3 -11   34.70    7.20
   2   3 -11   25.10    6.70
   2   3 -11   30.10   10.40
   2  -3 -11   29.40    6.60
   2  -3 -11   29.00    6.20
  -2  -3  11   34.30    5.30
   2  -3 -11   56.39    8.30
   2  -3 -11   43.70    9.80
   2  -3 -11   32.30    5.30
   2  -3 -11   34.30    5.90
   2   3 -10    2.00    3.10
   2   3 -10    4.30    2.50
   2   3 -10    7.50    3.60
   2   3 -10   -0.80    3.50
   2   3 -10    5.20    3.20
   2  -3 -10    5.80    4.30
   2  -3 -10    7.40    3.50
   2  -3 -10    4.30    3.00
   2  -3 -10    2.80    2.00
   2  -3 -10    6.80    3.70
   2  -3 -10    2.70    2.30
  -2  -3  10    2.90    2.00
  -2   3   9    7.10    2.00
   2   3  -9    5.70    3.20
   2   3  -9   16.00    4.20
   2   3  -9    9.80    2.70
   2   3  -9    6.70    5.20
   2   3  -9   13.50    3.90
   2  -3  -9    7.90    3.10
   2  -3  -9    9.20    4.40
  -2  -3   9   10.20    2.10
   2  -3  -9   14.00    3.80
   2  -3  -9    6.50    2.30
  -2  -3   9   11.40    2.70
   2  -3  -9    9.20    2.70
   2  -3  -9   10.20    3.50
   2   3  -8   39.00   10.80
   2   3  -8   52.09    8.40
   2   3  -8   56.69    7.40
  -2   3   8   61.39    6.90
   2   3  -8   54.69    7.80
   2   3  -8   47.10    8.50
   2  -3  -8   35.00    7.40
  -2  -3   8   44.70    6.90
   2  -3  -8   65.99    7.00
   2  -3  -8   43.20    7.80
   2  -3  -8   54.29    7.00
  -2  -3   8   53.39    6.70
   2  -3  -8   42.40    7.50
   2  -3  -8   57.29    9.40
   2   3  -7  279.57   34.30
   2   3  -7  291.47   33.20
   2   3  -7  302.17   33.80
   2   3  -7  264.17   36.60
  -2   3   7  289.47   33.00
   2   3  -7  287.67   34.00
   2  -3  -7  298.47   33.10
  -2  -3   7  293.57   33.30
   2  -3  -7  261.27   33.50
   2  -3  -7  348.07   34.70
   2  -3  -7  305.37   33.80
   2  -3  -7  264.77   33.70
  -2  -3   7  282.97   33.50
  -2  -3   7  285.27   32.90
   2  -3  -7  356.06   33.20
   2   3  -6  518.15   58.39
   2   3  -6  486.15   57.89
   2   3  -6  486.55   57.29
   2   3  -6  509.25   57.69
   2   3  -6  524.35   57.59
   2  -3  -6  521.95   57.69
   2  -3  -6  631.14   58.49
   2  -3  -6  576.64   57.79
   2  -3  -6  523.85   57.29
   2  -3  -6  483.65   57.79
  -2  -3   6  504.35   57.09
  -2  -3   6  478.35   57.39
  -2  -3   6  502.55   57.59
   2   3  -5   -0.60    0.70
   2   3  -5    0.70    1.80
   2   3  -5    0.60    1.80
  -2   3   5    0.20    0.80
   2   3  -5    0.90    1.30
   2   3  -5    0.40    1.40
   2  -3  -5    1.00    1.60
   2  -3  -5    1.40    1.50
   2  -3  -5    1.30    1.60
   2  -3  -5    3.30    1.10
  -2  -3   5    0.20    1.60
   2  -3  -5    2.60    2.40
  -2  -3   5    1.10    0.90
  -2  -3   5   -0.10    1.20
   2   3  -4    2.50    1.60
   2   3  -4    6.40    1.60
   2   3  -4    4.10    1.90
  -2   3   4    3.00    1.10
   2   3  -4    5.10    1.50
   2  -3  -4    5.40    1.60
  -2  -3   4   -0.10    1.20
  -2  -3   4    5.20    1.10
   2  -3  -4    2.70    1.50
  -2  -3   4    6.40    1.90
   2   3  -3   56.59    7.10
  -2   3   3   54.29    6.60
   2   3  -3   57.79    7.00
  -2  -3   3   52.89    7.00
  -2  -3   3   61.79    6.50
   2  -3  -3   62.59    7.00
   2  -3  -3   53.19    6.80
  -2  -3   3   49.30    6.70
   2   3  -2   35.50    4.40
  -2   3   2   36.70    4.60
   2   3  -2   35.20    5.00
   2   3  -2   37.70    5.20
  -2   3   2   40.10    4.60
   2  -3  -2   37.70    5.00
  -2  -3   2   37.00    4.40
  -2  -3   2   37.40    4.90
  -2  -3   2   34.50    5.00
  -2   3   1  189.38   21.00
   2   3  -1  187.88   21.00
  -2   3   1  177.48   21.20
  -2   3   1  196.98   21.10
   2   3  -1  198.88   21.40
  -2  -3   1  192.18   21.00
   2  -3  -1  189.68   21.20
   2   3   0    8.70    2.10
  -2   3   0   15.60    2.00
   2   3   0   13.00    1.70
  -2   3   0   10.70    1.70
   2  -3   0    9.90    2.00
  -2  -3   0   11.70    2.20
  -2  -3   0   11.60    1.60
  -2   3  -1   32.70    4.10
  -2   3  -1   32.50    3.90
   2   3   1   35.30    4.50
   2   3   1   34.80    3.90
   2  -3   1   34.40    4.40
  -2  -3  -1   30.00    3.80
   2  -3   1   43.90    4.90
  -2  -3  -1   29.00    4.40
  -2   3  -2    6.00    1.80
  -2   3  -2    2.40    0.80
   2   3   2    4.70    0.80
  -2   3  -2    3.90    1.00
   2   3   2    4.00    1.20
   2  -3   2    2.80    1.10
   2  -3   2    2.80    0.80
  -2  -3  -2    3.90    1.40
  -2  -3  -2    2.70    1.10
  -2  -3  -2    4.60    1.10
   2  -3   2    2.50    1.30
   2   3   3   15.70    2.10
  -2   3  -3   16.70    2.40
   2   3   3   17.60    2.60
  -2   3  -3   15.00    3.10
  -2  -3  -3   11.70    2.70
   2  -3   3   12.90    2.10
   2  -3   3   16.40    2.60
  -2  -3  -3   12.40    2.30
   2  -3   3   11.50    2.80
  -2  -3  -3   18.70    2.50
  -2  -3  -3   13.10    2.30
  -2  -3  -3   38.40    5.70
   2   3   4   44.00    5.20
  -2   3  -4   47.20    5.70
  -2   3  -4   48.90    5.90
  -2   3  -4   31.40    6.10
  -2   3  -4   40.60    5.20
   2   3   4   43.50    4.90
  -2  -3  -4   47.50    6.30
   2  -3   4   38.50    5.70
   2  -3   4   37.90    5.00
  -2  -3  -4   37.70    5.00
  -2  -3  -4   49.80    5.30
   2  -3   4   36.60    5.40
  -2  -3  -4   45.60    5.30
  -2   3  -5    4.50    1.80
   2   3   5    6.50    1.50
   2   3   5    5.30    1.10
  -2   3  -5    5.60    3.70
  -2   3  -5    4.90    2.40
  -2   3  -5    4.10    1.50
  -2   3  -5    4.90    1.60
  -2   3  -5   10.50    2.30
  -2  -3  -5    9.80    3.80
  -2  -3  -5    1.20    1.80
   2  -3   5    3.40    1.80
  -2  -3  -5    5.60    1.60
   2  -3   5    6.10    1.30
  -2  -3  -5    7.60    1.70
   2  -3   5    4.20    1.60
  -2  -3  -5    2.90    1.40
   2   3   6   45.80    5.30
  -2   3  -6   39.40    6.40
  -2   3  -6   47.40    6.30
  -2   3  -6   37.10    9.20
   2   3   6   44.40    5.50
  -2   3  -6   34.00    6.90
  -2   3  -6   39.30    6.30
  -2   3  -6   43.90    6.20
  -2  -3  -6   42.40    6.90
  -2  -3  -6   49.50    5.80
   2  -3   6   50.59    6.50
  -2  -3  -6   39.90    6.10
   2  -3   6   48.30    6.20
  -2  -3  -6   51.89    6.30
   2  -3   6   44.80    5.40
  -2  -3  -6   44.20    6.00
  -2   3  -7  123.79   18.10
  -2   3  -7  114.89   14.60
  -2   3  -7  119.69   14.70
  -2   3  -7   98.49   15.20
  -2   3  -7  114.49   14.30
  -2   3  -7  116.89   14.40
   2   3   7  112.29   13.70
  -2  -3  -7  118.09   15.00
  -2  -3  -7  135.69   14.40
   2  -3   7  122.99   13.80
  -2  -3  -7  144.59   14.50
  -2  -3  -7  129.69   14.40
   2  -3   7  135.59   14.70
   2  -3   7  117.39   14.20
  -2   3  -8   22.20    4.90
  -2   3  -8   29.50    5.50
  -2   3  -8   29.00    5.70
  -2   3  -8   36.50    5.90
  -2   3  -8   35.70    9.60
  -2   3  -8   24.30    6.20
   2  -3   8   31.30    4.90
   2  -3   8   38.50    4.60
  -2  -3  -8   28.90    5.10
  -2  -3  -8   37.40    5.40
  -2  -3  -8   41.60    6.60
  -2  -3  -8   30.30    5.40
  -2  -3  -8   58.59    9.10
  -2   3  -9    6.80    2.40
  -2   3  -9    2.00    4.60
  -2   3  -9    8.30    3.00
  -2   3  -9    3.00    3.10
  -2   3  -9    6.30    2.90
  -2   3  -9    3.00    2.60
  -2  -3  -9    3.30    2.50
  -2  -3  -9    3.00    2.30
   2  -3   9    6.30    2.10
  -2  -3  -9    8.80    2.70
  -2  -3  -9   -0.20    2.20
  -2  -3  -9   11.10    5.70
  -2   3 -10    0.40    4.70
  -2   3 -10    2.90    2.60
  -2   3 -10   -3.10    2.60
  -2   3 -10   -1.40    2.00
  -2   3 -10    2.10    2.60
  -2   3 -10    2.40    2.80
  -2  -3 -10    3.40    3.20
  -2  -3 -10    8.20    3.40
  -2  -3 -10   -0.60    2.20
  -2  -3 -10   -0.90    2.10
  -2  -3 -10    4.80    6.00
   2  -3  10    4.50    1.80
  -2   3 -11   85.99   13.30
  -2   3 -11   98.49   14.10
  -2   3 -11   76.39   18.20
  -2   3 -11   80.49   13.50
  -2   3 -11   75.99   14.60
  -2  -3 -11   88.49   14.20
  -2  -3 -11  143.59   13.90
   2  -3  11   95.09   12.00
  -2  -3 -11   94.89   13.00
  -2  -3 -11  108.09   14.00
  -2  -3 -11  150.78   18.40
  -2   3 -12  194.68   21.20
  -2   3 -12  123.49   21.70
  -2   3 -12  163.08   25.50
  -2   3 -12  148.89   20.40
  -2  -3 -12  208.98   20.90
  -2  -3 -12  168.88   20.00
  -2  -3 -12  166.68   22.20
  -2   3 -13    5.40    4.20
  -2   3 -13    9.80    4.00
  -2   3 -13   -2.80    5.00
  -2  -3 -13   -3.60    8.40
   2  -3  13    4.10    1.80
  -2  -3 -13   -2.10    3.70
  -2  -3 -13    0.70    4.00
  -2  -3 -13    1.60    3.60
  -2   3 -14    1.20    3.60
  -2   3 -14    1.80    5.90
  -2   3 -14    3.10    4.30
  -2  -3 -14   -2.50    4.20
  -2  -3 -14    8.10    4.40
  -2  -3 -14   -1.90    3.40
  -2  -3 -14   -8.50    9.70
  -2   3 -15    4.30    5.00
  -2   3 -15    2.00    6.70
  -2   3 -15    3.70    4.10
  -2  -3 -15   -2.10    4.40
  -2  -3 -15   -9.00   10.30
  -2  -3 -15    2.30    4.80
   2   4 -15   -0.70    3.70
   2   4 -15   -2.00    4.10
   2   4 -15   -1.60    5.60
   2  -4 -15    5.30    3.40
   2  -4 -15   -5.10    8.30
   2  -4 -15    8.80    4.60
   2   4 -14    5.90    4.70
   2   4 -14   14.30    5.80
   2   4 -14   15.20    8.90
   2  -4 -14   12.30    5.00
   2  -4 -14   16.40   10.20
  -2  -4  14   24.20    4.80
   2  -4 -14   25.30    5.20
   2  -4 -14   14.40    6.10
   2   4 -13    9.10    5.10
   2   4 -13   23.10    6.40
   2   4 -13   13.60    8.60
   2  -4 -13   21.60    4.70
   2  -4 -13    6.20    8.90
  -2  -4  13   14.20    3.50
   2  -4 -13   16.80    5.00
   2  -4 -13   15.60    5.60
   2   4 -12    6.40    6.70
   2   4 -12    3.60    3.80
   2   4 -12    3.30    4.10
   2  -4 -12   16.00    5.00
  -2  -4  12   12.50    3.40
   2  -4 -12   18.40    4.10
   2  -4 -12   11.70    5.30
   2  -4 -12   16.50    4.80
   2  -4 -12   21.20    8.80
   2   4 -11   55.19    9.90
   2   4 -11   55.09    8.80
   2   4 -11   39.60   13.40
   2   4 -11   51.09   10.40
  -2  -4  11   46.60    8.10
   2  -4 -11   72.59   13.00
   2  -4 -11   67.99    9.90
   2  -4 -11   51.19    9.60
   2  -4 -11   75.09    8.30
   2  -4 -11   53.79    9.30
   2   4 -10    5.40    3.50
   2   4 -10    0.20    4.80
   2   4 -10    2.30    3.00
   2   4 -10    4.70    2.60
   2  -4 -10    4.80    2.50
   2  -4 -10    8.00    3.70
   2  -4 -10    7.80    5.70
  -2  -4  10    2.20    2.20
   2  -4 -10   -0.30    2.60
   2  -4 -10    2.50    3.10
   2   4  -9   74.29   11.80
   2   4  -9   57.09   11.70
  -2   4   9   77.99   10.00
   2   4  -9   74.29   16.70
   2   4  -9   76.69   10.80
   2  -4  -9   96.99   10.30
   2  -4  -9  102.09   12.10
   2  -4  -9  114.19   13.90
  -2  -4   9   72.19   10.70
   2  -4  -9   80.99   11.80
   2  -4  -9   64.59   11.00
  -2   4   8  168.58   19.10
   2   4  -8  160.78   20.10
   2   4  -8  153.98   19.30
   2   4  -8  146.49   20.50
   2   4  -8  156.48   23.70
   2  -4  -8  197.88   20.00
  -2  -4   8  154.78   18.90
   2  -4  -8  208.68   19.20
  -2  -4   8  153.68   19.50
   2  -4  -8  154.38   19.90
   2  -4  -8  155.78   20.10
   2   4  -7   83.99   10.20
   2   4  -7   85.79   11.70
   2   4  -7   81.79   10.60
   2   4  -7   94.09   16.30
   2   4  -7   85.89   12.50
   2  -4  -7   91.59   11.60
   2  -4  -7   91.79   10.60
  -2  -4   7   77.19   10.40
  -2  -4   7   80.19    9.90
  -2  -4   7   90.99   10.90
   2  -4  -7   75.79   11.30
   2   4  -6  417.56   49.10
   2   4  -6  428.66   48.00
   2   4  -6  451.75   48.20
   2   4  -6  402.96   47.80
   2   4  -6  448.06   48.60
  -2   4   6  423.46   47.60
   2   4  -6  435.16   48.70
   2  -4  -6  412.36   48.50
  -2  -4   6  425.56   47.80
   2  -4  -6  450.45   48.60
  -2  -4   6  417.66   48.30
   2  -4  -6  483.05   48.20
  -2  -4   6  461.65   48.60
   2   4  -5   18.90    4.20
   2   4  -5   13.00    3.90
   2   4  -5   28.90    4.10
   2   4  -5   25.80    3.20
  -2   4   5   25.00    3.40
   2   4  -5   18.30    4.40
   2  -4  -5   25.30    4.30
   2  -4  -5   45.90    6.60
  -2  -4   5   19.40    3.30
  -2  -4   5   31.10    4.70
   2  -4  -5   14.90    3.70
   2  -4  -5   24.10    3.10
  -2  -4   5   20.30    3.80
   2   4  -4  346.87   36.60
   2   4  -4  347.67   37.30
   2   4  -4  342.17   37.20
  -2   4   4  306.87   36.80
   2   4  -4  328.37   37.50
  -2  -4   4  352.56   37.40
   2  -4  -4  344.87   36.50
   2  -4  -4  330.97   37.20
   2  -4  -4  318.87   37.20
  -2  -4   4  315.07   37.10
   2  -4  -4  336.77   36.60
  -2  -4   4  320.77   36.70
  -2   4   3  409.66   45.90
  -2   4   3  410.16   45.90
   2   4  -3  445.36   46.30
   2   4  -3  412.16   45.60
   2   4  -3  408.66   46.50
   2  -4  -3  445.06   46.10
   2  -4  -3  413.56   45.60
  -2  -4   3  395.86   46.10
  -2  -4   3  401.16   46.30
   2  -4  -3  418.26   46.10
  -2  -4   3  417.16   45.70
  -2   4   2    6.70    1.50
   2   4  -2    5.70    2.10
   2   4  -2    4.00    1.60
  -2   4   2    4.80    1.50
   2   4  -2    4.80    1.10
  -2  -4   2    3.20    1.70
  -2  -4   2    2.70    1.30
   2  -4  -2    7.60    1.60
  -2  -4   2    6.40    1.20
   2  -4  -2    7.20    1.70
   2   4  -1   57.19    6.90
  -2   4   1   55.79    6.70
   2   4  -1   49.20    6.30
   2   4  -1   59.49    7.50
  -2   4   1   57.99    6.50
  -2   4   1   61.79    7.10
  -2  -4   1   43.70    6.90
  -2  -4   1   52.89    6.70
   2  -4  -1   53.29    6.60
  -2  -4   1   53.39    6.30
  -2   4   0    1.90    1.20
   2   4   0    0.40    1.10
  -2   4   0   -0.50    1.10
  -2   4   0   -0.80    0.60
   2   4   0   -0.30    1.00
  -2  -4   0   -0.10    1.20
  -2  -4   0    0.40    1.00
   2  -4   0   -1.10    0.90
  -2  -4   0    0.50    0.60
   2  -4   0   -0.40    0.90
  -2  -4   0    1.30    1.00
   2   4   1  169.38   19.80
  -2   4  -1  170.78   19.90
  -2   4  -1  184.18   19.40
   2   4   1  170.98   19.70
   2  -4   1  171.38   19.70
  -2  -4  -1  172.08   19.10
  -2  -4  -1  168.08   19.60
  -2  -4  -1  174.88   19.60
   2  -4   1  173.58   19.60
   2   4   2  235.18   27.20
  -2   4  -2  253.67   27.00
  -2  -4  -2  237.18   27.30
   2  -4   2  250.57   27.40
   2  -4   2  233.38   26.80
  -2  -4  -2  235.18   27.20
   2  -4   2  258.17   27.30
  -2   4  -3  161.88   17.70
  -2   4  -3  152.48   18.60
   2   4   3  160.88   18.00
  -2  -4  -3  154.78   17.80
  -2  -4  -3  167.28   18.40
   2  -4   3  151.88   18.20
  -2  -4  -3  161.38   17.70
   2  -4   3  158.18   17.60
   2  -4   3  150.28   18.00
  -2   4  -4  123.79   14.30
   2   4   4  119.49   14.30
  -2   4  -4  108.49   15.10
  -2   4  -4  131.39   14.30
   2  -4   4  131.69   14.10
  -2  -4  -4  123.59   14.20
   2  -4   4  119.49   14.50
  -2  -4  -4  122.59   14.80
  -2  -4  -4  126.99   14.10
   2  -4   4  137.79   14.80
  -2   4  -5   16.30    2.70
  -2   4  -5   13.50    2.80
  -2   4  -5   13.70    3.70
  -2   4  -5   12.90    2.80
   2   4   5   12.60    2.50
   2  -4   5   14.40    2.30
  -2  -4  -5   27.10    5.90
   2  -4   5   11.50    2.70
  -2  -4  -5   16.10    2.70
  -2  -4  -5   12.50    2.50
   2  -4   5    8.50    2.70
  -2  -4  -5    7.50    2.80
  -2   4  -6    2.40    1.60
  -2   4  -6   -0.60    1.80
  -2   4  -6    3.10    2.00
  -2   4  -6    1.20    1.20
  -2   4  -6    0.50    3.50
  -2   4  -6    0.40    1.20
   2   4   6   -1.40    1.00
  -2  -4  -6   -0.80    1.30
   2  -4   6   -2.80    1.40
   2  -4   6    1.00    1.40
  -2  -4  -6   -0.30    1.00
  -2  -4  -6    2.00    1.60
  -2  -4  -6    0.00    1.90
  -2  -4  -6    0.30    4.60
   2  -4   6   -0.80    1.00
  -2   4  -7    5.00    2.20
  -2   4  -7    9.40    3.90
   2   4   7   13.00    2.20
  -2   4  -7    9.20    2.80
  -2   4  -7    9.80    5.40
  -2   4  -7   18.70    3.50
  -2   4  -7   10.40    2.70
  -2  -4  -7   10.20    3.40
  -2  -4  -7   13.50    2.70
   2  -4   7   11.90    2.10
  -2  -4  -7    8.20    2.30
  -2  -4  -7    7.60    2.50
   2  -4   7   10.00    2.70
   2  -4   7   11.10    2.90
  -2  -4  -7    9.30    5.40
  -2   4  -8   30.30    6.90
  -2   4  -8   39.50    6.10
  -2   4  -8   31.50    6.10
  -2   4  -8   46.40    6.30
  -2   4  -8   36.30    6.10
  -2   4  -8   32.10    9.50
  -2  -4  -8   39.40    5.60
   2  -4   8   29.40    4.80
  -2  -4  -8   46.40    6.00
  -2  -4  -8   62.19   10.30
  -2  -4  -8   27.90    5.30
  -2  -4  -8   34.70    6.50
   2  -4   8   29.20    5.40
  -2   4  -9   63.29    8.60
  -2   4  -9   45.20    7.40
  -2   4  -9   30.10   10.30
  -2   4  -9   36.40    8.40
  -2   4  -9   33.60    7.00
  -2   4  -9   56.39    7.70
  -2  -4  -9   54.99    7.30
  -2  -4  -9   44.00    8.00
  -2  -4  -9   80.59   12.20
   2  -4   9   44.00    6.60
  -2  -4  -9   40.50    6.60
  -2   4 -10   -1.10    2.20
  -2   4 -10    2.70    3.30
  -2   4 -10    1.60    4.40
  -2   4 -10   -0.30    2.20
  -2   4 -10   -2.30    2.70
  -2  -4 -10    3.40    2.50
  -2  -4 -10   -2.60    1.70
   2  -4  10    0.60    1.90
  -2  -4 -10    0.90    3.20
  -2  -4 -10   -2.00    2.40
  -2  -4 -10   -0.70    6.90
  -2   4 -11   33.60    7.10
  -2   4 -11   44.10    8.10
  -2   4 -11   27.50    8.00
  -2   4 -11   27.60   10.60
   2  -4  11   37.80    6.10
  -2  -4 -11   56.19    7.60
  -2  -4 -11   50.69    7.20
  -2  -4 -11   48.10    7.30
  -2  -4 -11   39.20    8.20
  -2  -4 -11   63.99   13.50
  -2   4 -12   21.00    8.70
  -2   4 -12   21.00    9.50
  -2   4 -12   16.30    4.70
  -2   4 -12   19.10    6.10
   2  -4  12   19.60    3.90
  -2  -4 -12   18.90    4.90
  -2  -4 -12   26.90    5.80
  -2  -4 -12   12.80    5.20
  -2  -4 -12   26.70   12.20
  -2   4 -13    6.40    4.60
  -2   4 -13   15.20    5.10
  -2   4 -13   12.80    8.40
   2  -4  13    9.90    2.70
  -2  -4 -13   18.00   12.30
  -2  -4 -13   14.20    5.60
  -2  -4 -13   11.30    4.60
  -2   4 -14   15.10    4.80
  -2   4 -14    3.20    7.20
  -2   4 -14    3.60    4.60
  -2  -4 -14   10.60    5.40
   2  -4  14   13.20    3.10
  -2  -4 -14   23.30    5.40
  -2  -4 -14    7.60   13.00
  -2   4 -15   -1.30    4.00
  -2   4 -15    0.50    6.80
  -2   4 -15    1.30    4.60
  -2  -4 -15   -2.10    4.30
  -2  -4 -15  -30.50   10.50
  -2  -4 -15   -0.10    3.70
   2   5 -15   11.80    5.40
   2   5 -15    7.30    4.50
   2   5 -15   -0.50    6.30
   2  -5 -15    9.30    4.70
   2  -5 -15   -0.90   10.20
   2   5 -14    5.90    3.90
   2   5 -14   -0.80    6.40
   2   5 -14    3.80    4.30
   2  -5 -14    6.10    4.10
   2  -5 -14    4.40    2.90
   2  -5 -14   -6.80    8.90
  -2  -5  14   -1.70    2.20
   2   5 -13   11.70    8.40
   2   5 -13    5.90    4.20
   2   5 -13    9.40    5.30
   2  -5 -13    6.10    9.40
  -2  -5  13    7.80    3.20
   2  -5 -13   12.20    3.50
   2  -5 -13   11.40    4.60
   2   5 -12    5.00    4.40
   2   5 -12   -1.60    5.10
   2   5 -12    0.30    3.10
   2  -5 -12   -2.60    8.00
   2  -5 -12    4.00    2.50
   2  -5 -12    3.90    3.50
  -2  -5  12    4.00    2.70
   2   5 -11    0.10    2.90
   2   5 -11    3.90    3.50
   2   5 -11   -0.30    3.00
   2   5 -11    2.50    4.80
   2  -5 -11    3.20    2.30
   2  -5 -11   -0.80    3.20
   2  -5 -11   -2.00    7.70
  -2  -5  11    1.40    2.20
   2   5 -10   13.10    5.20
   2   5 -10   19.50    4.20
   2   5 -10   13.00    4.80
   2   5 -10   10.50    6.40
   2  -5 -10   19.40    3.50
   2  -5 -10   12.40    4.50
   2  -5 -10   13.20    4.50
   2  -5 -10   30.20    9.30
  -2  -5  10   13.40    3.80
   2   5  -9    0.50    4.90
   2   5  -9    9.40    4.30
   2   5  -9    7.50    3.70
   2   5  -9    6.50    2.60
   2  -5  -9    9.70    7.20
   2  -5  -9    2.90    2.90
  -2  -5   9    2.80    2.40
   2  -5  -9    8.40    3.50
   2  -5  -9    2.40    1.80
   2   5  -8    5.80    2.30
   2   5  -8    3.20    3.10
   2   5  -8    5.70    3.10
   2   5  -8    4.10    4.60
   2  -5  -8    6.90    2.90
   2  -5  -8    5.00    3.00
   2  -5  -8    7.40    6.30
  -2  -5   8    6.50    3.20
  -2  -5   8    9.30    2.90
   2  -5  -8    5.50    1.80
   2   5  -7   17.60    3.70
   2   5  -7   16.10    4.50
   2   5  -7   28.80    6.20
   2   5  -7   19.40    4.40
   2  -5  -7   42.30    8.10
   2  -5  -7   26.20    5.10
   2  -5  -7   22.70    3.60
  -2  -5   7   26.40    4.80
   2  -5  -7   27.80    5.20
  -2  -5   7   19.90    3.50
  -2  -5   7   23.80    5.10
   2   5  -6   38.00    6.10
   2   5  -6   29.80    4.80
   2   5  -6   38.30    5.60
  -2   5   6   34.50    4.70
   2   5  -6   28.90    5.70
   2   5  -6   31.60    6.50
   2  -5  -6   30.40    5.60
  -2  -5   6   30.40    5.30
  -2  -5   6   31.90    4.60
   2  -5  -6   21.50    5.20
   2  -5  -6   32.40    4.60
   2  -5  -6   59.89    8.90
  -2  -5   6   42.50    6.30
   2   5  -5    0.10    2.00
  -2   5   5   -1.30    1.40
   2   5  -5    1.90    0.90
   2   5  -5    2.70    1.80
   2   5  -5    0.10    2.10
   2   5  -5   -0.80    1.90
  -2   5   5   -0.10    1.10
   2  -5  -5    0.30    4.80
  -2  -5   5    0.00    1.00
   2  -5  -5    1.60    1.90
  -2  -5   5   -1.20    1.90
   2  -5  -5    1.10    1.80
  -2  -5   5   -0.20    1.80
   2   5  -4   56.09    7.70
  -2   5   4   46.80    7.00
   2   5  -4   50.69    8.00
   2   5  -4   61.19    6.60
  -2   5   4   55.29    6.90
   2   5  -4   56.89    7.70
  -2  -5   4   61.89    7.80
  -2  -5   4   48.90    7.70
   2  -5  -4   51.09    7.70
  -2  -5   4   58.29    6.70
   2  -5  -4   57.79    7.70
   2  -5  -4   54.29    6.50
  -2   5   3   19.10    3.10
   2   5  -3   18.70    2.60
  -2   5   3   11.40    2.70
   2   5  -3   13.40    3.20
   2   5  -3   22.70    4.30
  -2  -5   3   12.80    3.50
  -2  -5   3   14.60    2.50
   2  -5  -3   13.50    3.10
   2  -5  -3   16.50    2.50
  -2  -5   3   15.00    3.20
   2  -5  -3   22.70    3.30
  -2   5   2   27.30    4.10
   2   5  -2   26.50    3.70
  -2   5   2   24.40    4.10
   2   5  -2   24.70    4.30
   2   5  -2   23.10    4.80
  -2   5   2   32.70    4.70
   2  -5  -2   22.50    4.10
  -2  -5   2   18.90    3.90
   2  -5  -2   39.10    4.40
   2  -5  -2   28.50    4.00
  -2  -5   2   29.80    4.70
  -2  -5   2   30.30    3.80
   2   5  -1   76.69    9.80
  -2   5   1   82.69   10.00
  -2   5   1   83.89   10.10
   2   5  -1   90.29   11.30
   2   5  -1   81.89   10.40
  -2   5   1   90.79   10.50
  -2  -5   1   76.69   10.40
   2  -5  -1   88.79    9.90
  -2  -5   1   90.59    9.70
  -2  -5   1   83.49   10.20
   2  -5  -1   82.59   10.10
   2   5   0    6.90    2.10
   2   5   0    3.40    2.10
  -2   5   0    3.60    1.60
  -2   5   0    3.40    1.40
  -2   5   0    3.70    2.10
   2   5   0    4.30    1.40
  -2  -5   0    5.30    1.30
  -2  -5   0    3.80    1.50
  -2  -5   0    5.10    2.10
  -2  -5   0    1.70    1.50
   2  -5   0    1.80    1.50
   2  -5   0    7.30    1.80
  -2   5  -1  778.52   87.29
   2   5   1  762.72   87.09
  -2   5  -1  782.22   86.69
   2   5   1  767.82   87.19
   2  -5   1  766.72   87.09
   2  -5   1  824.42   86.99
  -2  -5  -1  856.81   86.99
  -2  -5  -1  766.22   86.89
  -2  -5  -1  809.62   87.09
   2   5   2  608.24   68.19
   2   5   2  641.04   68.09
  -2   5  -2  614.44   67.69
   2  -5   2  627.84   67.99
  -2  -5  -2  610.64   67.99
   2  -5   2  618.84   68.19
  -2  -5  -2  593.04   67.99
   2   5   3   48.00    6.40
  -2   5  -3   61.99    8.10
  -2   5  -3   45.50    5.70
   2  -5   3   49.70    5.70
   2  -5   3   37.40    6.10
   2  -5   3   51.49    6.90
  -2  -5  -3   39.70    6.60
  -2  -5  -3   41.10    6.00
  -2   5  -4  674.53   75.59
  -2   5  -4  644.44   76.69
   2   5   4  716.93   75.89
   2  -5   4  708.53   76.29
   2  -5   4  693.63   75.49
   2  -5   4  660.33   75.99
  -2  -5  -4  703.63   75.59
  -2  -5  -4  709.23   76.39
  -2   5  -5  136.19   15.80
  -2   5  -5  115.99   16.90
   2   5   5  146.59   16.00
   2  -5   5  139.19   16.30
   2  -5   5  138.59   16.50
  -2  -5  -5  134.19   15.80
   2  -5   5  152.78   15.70
  -2  -5  -5  136.39   16.80
  -2   5  -6    3.70    2.80
  -2   5  -6    3.10    1.70
   2   5   6    1.70    1.60
  -2   5  -6   -0.90    3.50
  -2   5  -6    2.90    1.60
  -2   5  -6    3.70    2.00
  -2  -5  -6    0.80    1.40
   2  -5   6    1.00    2.20
   2  -5   6    3.30    2.10
  -2  -5  -6    1.10    2.30
   2  -5   6    0.50    1.20
  -2  -5  -6    4.90    6.50
  -2   5  -7    7.80    3.90
  -2   5  -7    0.30    4.00
  -2   5  -7   12.90    2.80
  -2   5  -7    6.00    2.80
   2   5   7   11.50    2.40
  -2   5  -7    4.20    2.40
  -2   5  -7    9.80    2.60
  -2  -5  -7    9.50    3.90
  -2  -5  -7   19.90    7.30
   2  -5   7   16.20    3.80
   2  -5   7    8.20    2.00
  -2  -5  -7   10.60    2.50
   2  -5   7   11.20    2.90
  -2   5  -8    4.30    2.50
  -2   5  -8    7.10    2.80
  -2   5  -8    5.10    5.50
  -2   5  -8    1.70    2.20
  -2   5  -8    1.20    3.10
  -2   5  -8   -0.80    1.60
  -2  -5  -8    2.30    2.00
  -2  -5  -8   -0.20    2.80
   2  -5   8    2.40    2.10
  -2  -5  -8    2.20    7.50
   2  -5   8    2.70    2.60
  -2   5  -9   33.70    6.00
  -2   5  -9   30.50    9.80
  -2   5  -9   21.20    5.00
  -2   5  -9   19.20    6.20
  -2   5  -9   24.90    5.10
  -2  -5  -9   28.80    4.90
  -2  -5  -9   32.00    6.80
  -2  -5  -9   47.00   11.40
   2  -5   9   23.80    4.80
  -2   5 -10    2.90    3.70
  -2   5 -10    2.10    5.10
  -2   5 -10    1.30    3.10
  -2   5 -10   -0.30    2.40
  -2   5 -10   -2.40    1.90
   2  -5  10   -3.70    1.80
  -2  -5 -10    3.30    3.90
  -2  -5 -10    3.10    2.50
  -2  -5 -10    1.80    9.30
  -2   5 -11   -0.90    4.70
  -2   5 -11   -2.40    1.90
  -2   5 -11    4.30    4.00
  -2   5 -11    4.30    3.80
   2  -5  11    4.00    2.30
  -2  -5 -11   -4.60    9.70
  -2  -5 -11    4.00    4.20
  -2  -5 -11    0.00    2.80
  -2   5 -12    2.10    4.20
  -2   5 -12    3.10    6.60
  -2   5 -12    2.30    3.50
  -2  -5 -12    4.20   11.70
  -2  -5 -12    8.20    3.50
  -2  -5 -12    0.20    4.00
   2  -5  12    5.40    2.40
  -2   5 -13    2.50    4.90
  -2   5 -13    3.90    3.10
  -2   5 -13   -0.30    6.60
   2  -5  13   -1.10    2.00
  -2  -5 -13   -4.60   11.40
  -2  -5 -13    3.70    3.10
  -2  -5 -13    2.90    4.10
  -2   5 -14    5.50    4.90
  -2   5 -14    4.30    6.50
  -2   5 -14   -2.20    6.00
   2  -5  14    3.90    2.20
  -2  -5 -14   -5.80   12.30
  -2  -5 -14   -4.80    4.20
  -2  -5 -14    1.70    3.20
   2   6 -14    0.50    7.10
   2   6 -14   -0.20    4.70
  -2  -6  14    5.10    3.00
   2  -6 -14    8.10   10.20
   2  -6 -14    4.20    3.90
  -2   6  13    2.20    3.30
   2   6 -13    8.40    5.50
   2   6 -13    6.90    8.40
  -2  -6  13    1.90    2.80
   2  -6 -13    6.00    4.30
   2  -6 -13   12.60    3.20
   2  -6 -13    9.90    9.60
   2   6 -12    1.70    4.30
   2   6 -12    3.20    6.30
  -2   6  12    3.60    2.50
   2  -6 -12    3.10    8.90
   2  -6 -12    1.90    3.90
  -2  -6  12    0.70    2.70
   2  -6 -12    1.00    2.40
  -2   6  11   60.29    8.00
   2   6 -11   40.90   13.50
   2   6 -11   47.60   10.10
   2  -6 -11   60.19    7.40
  -2  -6  11   48.60    8.10
   2  -6 -11   36.10    8.30
   2   6 -10   46.80    7.10
   2   6 -10   24.80   10.70
   2   6 -10   24.90    7.60
  -2  -6  10   38.40    6.70
   2  -6 -10   62.29   12.30
   2  -6 -10   40.20    6.00
   2  -6 -10   34.40    7.30
   2   6  -9  117.69   18.50
   2   6  -9  124.99   15.70
   2   6  -9   97.69   21.70
  -2  -6   9  172.48   19.10
  -2  -6   9  127.89   15.90
   2  -6  -9  144.39   16.60
  -2   6   8   76.79   10.90
   2   6  -8   83.59   13.70
   2   6  -8   88.89   18.00
   2   6  -8   80.79   11.10
  -2  -6   8   90.09   11.70
  -2  -6   8   97.89   12.40
   2  -6  -8   81.59   12.20
   2   6  -7    4.50    2.70
  -2   6   7    2.30    2.20
   2   6  -7    0.00    2.50
   2   6  -7   -1.60    1.30
  -2  -6   7    3.40    3.00
  -2  -6   7    4.30    2.50
   2  -6  -7    4.10    3.00
   2  -6  -7    3.50    6.30
   2  -6  -7   -0.90    2.10
   2   6  -6  131.69   15.50
   2   6  -6  110.59   16.40
  -2   6   6  115.99   15.00
   2   6  -6  125.49   16.00
   2  -6  -6  141.69   15.90
  -2  -6   6  129.19   16.00
   2  -6  -6  122.99   15.60
  -2  -6   6  147.39   15.80
   2   6  -5  139.39   16.40
  -2   6   5  141.99   15.80
  -2   6   5  140.99   16.00
   2   6  -5  141.09   15.40
   2   6  -5  136.39   16.80
   2   6  -5  144.39   17.50
  -2  -6   5  122.29   15.50
  -2  -6   5  139.49   16.70
   2  -6  -5  154.68   16.60
  -2  -6   5  129.09   16.30
   2  -6  -5  108.89   16.10
   2   6  -4   11.10    2.00
  -2   6   4   10.40    2.40
   2   6  -4   10.20    3.70
   2   6  -4    6.80    2.80
  -2   6   4   12.50    2.60
   2  -6  -4    7.20    1.70
   2  -6  -4   13.50    3.10
  -2  -6   4    5.70    2.00
   2  -6  -4    8.00    2.70
  -2  -6   4   11.90    3.00
  -2  -6   4   11.70    3.30
  -2   6   3    6.20    2.20
   2   6  -3    4.70    1.50
   2   6  -3    6.70    2.40
  -2   6   3    5.90    2.10
   2   6  -3   11.00    3.40
   2  -6  -3    5.90    2.30
  -2  -6   3    9.40    2.90
   2  -6  -3    4.20    1.50
  -2  -6   3    4.70    1.50
   2  -6  -3    7.80    2.30
  -2  -6   3    4.60    2.20
  -2   6   2   -0.50    1.40
   2   6  -2    4.90    2.30
  -2   6   2    1.90    1.40
  -2   6   2    1.50    2.10
   2   6  -2    0.80    1.20
   2   6  -2   -0.10    2.00
   2  -6  -2    0.70    1.30
  -2  -6   2    3.20    1.20
  -2  -6   2    5.70    2.30
   2  -6  -2    1.40    1.50
  -2  -6   2    4.20    2.00
   2   6  -1   50.79    7.80
  -2   6   1   40.10    6.60
   2   6  -1   47.50    7.20
  -2   6   1   44.80    6.50
  -2   6   1   41.40    7.20
   2   6  -1   49.70    6.50
   2  -6  -1   46.10    6.40
  -2  -6   1   53.69    7.50
  -2  -6   1   50.59    7.10
   2  -6  -1   44.40    6.70
  -2  -6   1   47.00    6.10
   2  -6  -1   68.49    6.50
   2   6   0    9.90    3.10
  -2   6   0   11.50    2.30
  -2   6   0    3.80    2.60
   2   6   0    7.00    2.50
   2   6   0    4.40    1.80
  -2   6   0    8.00    2.60
   2  -6   0   10.40    2.70
   2  -6   0    9.30    2.20
  -2  -6   0    6.70    2.10
  -2  -6   0    5.50    2.30
  -2  -6   0    7.20    2.40
  -2   6  -1  175.98   20.50
   2   6   1  156.78   20.40
   2   6   1  167.48   19.70
  -2   6  -1  176.38   19.70
   2   6   1  171.68   20.20
  -2  -6  -1  194.08   20.10
  -2  -6  -1  158.68   19.80
   2  -6   1  179.68   19.90
   2  -6   1  180.68   20.20
  -2  -6  -1  169.58   20.10
   2   6   2    9.60    2.70
  -2   6  -2   10.30    2.20
   2   6   2   11.10    3.30
  -2  -6  -2   10.40    2.70
   2  -6   2    9.60    2.70
   2  -6   2   10.80    3.10
  -2  -6  -2   13.60    2.90
  -2   6  -3    7.30    3.10
   2   6   3    6.20    2.10
  -2   6  -3    4.40    1.50
   2  -6   3    0.50    1.70
  -2  -6  -3    5.40    1.80
   2  -6   3    0.70    1.90
  -2  -6  -3    8.90    2.70
  -2   6  -4  194.78   20.80
  -2   6  -4  176.08   22.20
   2   6   4  180.98   21.10
  -2  -6  -4  188.78   21.60
  -2  -6  -4  187.78   20.70
   2  -6   4  175.78   21.20
   2  -6   4  182.18   20.60
   2  -6   4  171.68   21.50
  -2   6  -5  131.19   19.40
   2   6   5  178.08   18.50
  -2   6  -5  152.48   18.10
   2  -6   5  145.69   17.90
   2  -6   5  178.38   19.20
  -2  -6  -5  166.58   19.10
   2  -6   5  165.58   18.70
  -2   6  -6  150.98   18.10
  -2   6  -6  118.19   19.00
   2   6   6  157.48   17.90
  -2   6  -6  157.98   17.90
  -2  -6  -6  170.18   19.00
   2  -6   6  160.28   18.30
   2  -6   6  167.48   18.80
  -2   6  -7   14.40    4.80
  -2   6  -7    8.30    6.00
  -2   6  -7   15.40    3.60
  -2   6  -7   13.30    3.00
   2   6   7    6.90    2.40
  -2  -6  -7   20.00    8.20
  -2  -6  -7    3.30    3.30
   2  -6   7   16.00    4.00
   2  -6   7    8.80    3.10
  -2   6  -8   12.20    3.30
  -2   6  -8   10.10    4.60
  -2   6  -8   17.20    4.00
  -2   6  -8    6.10    5.90
  -2  -6  -8   18.70    4.70
   2  -6   8   14.00    4.00
  -2  -6  -8   15.20    3.30
  -2  -6  -8   24.60    9.90
   2  -6   8    7.00    3.00
  -2   6  -9    6.10    3.30
  -2   6  -9    5.10    5.90
  -2   6  -9    3.40    3.50
  -2   6  -9    1.30    2.40
  -2  -6  -9   20.50   10.20
   2  -6   9    3.20    2.30
  -2  -6  -9    4.30    3.80
  -2  -6  -9    2.10    2.20
  -2   6 -10   21.70    5.30
  -2   6 -10   15.00    8.50
  -2   6 -10   16.40    6.10
  -2  -6 -10   24.70    4.60
  -2  -6 -10   25.80   11.90
   2  -6  10   20.90    4.50
  -2  -6 -10   16.40    5.60
  -2   6 -11   28.40    8.90
  -2   6 -11   42.50   13.10
  -2  -6 -11   53.69    7.90
  -2  -6 -11   63.59   10.20
   2  -6  11   48.00    7.70
  -2  -6 -11   97.29   18.10
  -2   6 -12    8.10    5.10
  -2   6 -12   12.50    8.10
  -2  -6 -12    8.70    4.60
  -2  -6 -12   16.30   13.10
   2  -6  12   10.20    3.30
  -2  -6 -12   14.90    4.20
  -2   6 -13   -3.20    6.40
  -2   6 -13    9.40    5.50
  -2  -6 -13    0.00    4.10
  -2  -6 -13   -6.30   13.60
  -2  -6 -13    3.40    3.10
   2  -6  13    2.30    2.40
   2   7 -13    2.20    6.90
   2   7 -13    1.10    4.50
  -2   7  13   -0.50    2.50
   2  -7 -13    1.20    4.00
  -2  -7  13    3.10    3.20
  -2   7  12   -2.60    2.40
   2   7 -12   -1.40    4.10
   2   7 -12   -2.50    5.40
   2  -7 -12    1.40    3.70
  -2  -7  12    0.50    2.90
   2   7 -11   31.00    8.90
  -2   7  11   43.30    6.80
   2   7 -11   41.80   13.50
   2  -7 -11   36.30    7.80
  -2  -7  11   40.80    7.10
   2   7 -10   24.70    7.60
  -2   7  10   39.30    6.30
   2   7 -10   28.10   11.10
   2  -7 -10   41.80    7.70
  -2  -7  10   40.10    6.70
   2   7  -9  172.08   25.60
   2   7  -9  175.18   29.50
   2   7  -9  199.38   24.30
  -2   7   9  204.88   24.10
   2  -7  -9  246.48   25.40
  -2  -7   9  234.18   25.30
  -2  -7   9  225.38   24.80
   2   7  -8   49.60    7.30
  -2   7   8   42.80    7.00
   2   7  -8   36.60    8.70
   2  -7  -8   46.00    7.90
  -2  -7   8   53.99    8.50
  -2  -7   8   51.89    7.90
   2   7  -7    0.60    3.10
  -2   7   7    0.90    2.00
   2   7  -7    2.40    3.20
   2   7  -7   -2.00    1.80
  -2  -7   7   -2.30    2.50
   2  -7  -7    0.20    2.50
  -2  -7   7    0.00    2.50
   2   7  -6   11.30    4.70
  -2   7   6   27.10    4.50
   2   7  -6   26.40    5.10
   2   7  -6   19.80    5.30
   2  -7  -6   15.20    4.30
  -2  -7   6   25.00    5.20
  -2  -7   6   17.90    4.30
   2   7  -5   73.09    8.60
   2   7  -5   65.19   10.70
   2   7  -5   74.69   10.30
   2   7  -5   77.59   12.00
  -2   7   5   70.89    9.60
  -2  -7   5   58.69   10.00
  -2  -7   5   73.79   10.10
   2  -7  -5   68.29   10.00
   2   7  -4   33.90    4.40
   2   7  -4   31.20    6.30
  -2   7   4   28.60    4.90
   2   7  -4   41.90    6.10
  -2   7   4   21.80    4.60
  -2  -7   4   23.20    5.60
   2  -7  -4   28.70    5.50
   2  -7  -4   25.90    5.20
   2  -7  -4   31.80    4.20
  -2  -7   4   32.40    5.40
   2   7  -3    0.70    1.90
   2   7  -3    3.20    3.30
   2   7  -3    0.10    1.00
  -2   7   3    3.20    1.90
  -2   7   3   -0.50    1.60
  -2  -7   3   -1.30    2.00
   2  -7  -3   -0.30    1.90
  -2  -7   3    1.60    2.10
   2  -7  -3   -1.70    1.10
   2   7  -2    6.00    2.90
  -2   7   2    5.80    2.20
   2   7  -2    2.90    1.50
  -2   7   2    5.00    3.00
  -2   7   2   12.20    2.80
   2   7  -2    9.40    3.70
   2  -7  -2    5.20    2.20
  -2  -7   2    4.50    2.90
  -2  -7   2    4.30    2.20
   2  -7  -2    4.90    1.90
   2   7  -1    7.60    3.10
   2   7  -1   12.00    2.60
  -2   7   1   11.90    3.50
  -2   7   1   11.60    2.70
   2   7  -1    9.20    3.60
  -2  -7   1    7.90    2.80
   2  -7  -1   10.60    2.80
  -2  -7   1    5.40    2.90
   2  -7  -1   14.60    2.80
  -2   7   0    0.20    1.40
   2   7   0    0.30    2.10
  -2   7   0    0.60    2.30
   2   7   0    0.00    2.60
   2   7   0    4.30    1.80
   2  -7   0    0.60    1.80
   2  -7   0   -0.10    1.50
   2  -7   0   -0.40    1.70
  -2  -7   0    0.80    1.90
  -2  -7   0    3.00    2.20
   2   7   1   54.49    8.10
   2   7   1   64.09    8.90
  -2   7  -1   53.09    7.20
   2   7   1   65.59    7.80
  -2  -7  -1   59.19    8.20
   2  -7   1   47.60    7.80
  -2  -7  -1   52.69    7.60
   2  -7   1   51.59    7.50
   2   7   2   39.40    5.90
   2   7   2   39.60    6.40
  -2   7  -2   44.60    5.70
   2   7   2   40.10    7.00
   2  -7   2   43.70    6.00
  -2  -7  -2   27.90    5.60
  -2  -7  -2   33.20    5.80
   2  -7   2   36.50    6.30
   2   7   3    1.50    2.00
  -2   7  -3   -0.70    1.10
   2   7   3   -1.40    1.70
  -2   7  -3   -2.20    2.20
  -2  -7  -3    2.90    1.70
  -2  -7  -3    3.00    2.30
   2  -7   3   -0.30    2.10
   2  -7   3    1.10    1.90
  -2   7  -4   23.30    3.90
   2   7   4   23.50    4.40
  -2   7  -4   15.80    5.20
  -2  -7  -4   27.60    3.90
   2  -7   4   20.30    4.30
  -2  -7  -4   19.90    4.40
   2  -7   4   18.10    4.70
   2   7   5   59.19    7.90
  -2   7  -5   53.19    7.20
  -2   7  -5   54.49    9.60
   2  -7   5   51.89    8.30
  -2  -7  -5   50.79    8.50
   2  -7   5   50.09    7.80
  -2   7  -6    2.80    2.20
  -2   7  -6   -1.00    1.50
  -2   7  -6    0.00    2.60
   2   7   6    0.50    1.80
   2  -7   6   -1.60    2.40
  -2  -7  -6   -0.10    2.40
   2  -7   6   -0.60    2.00
  -2   7  -7    1.40    2.00
   2   7   7    2.90    2.00
  -2   7  -7    1.60    5.10
  -2   7  -7    5.50    2.60
  -2   7  -7   -3.70    2.60
   2  -7   7    2.20    2.60
  -2  -7  -7    0.20    2.90
   2  -7   7   -3.10    2.30
  -2   7  -8    3.00    5.30
  -2   7  -8   -0.70    2.80
  -2   7  -8    0.10    2.10
  -2   7  -8   -1.10    2.50
   2  -7   8    1.30    2.60
  -2  -7  -8    1.10    3.00
   2  -7   8    2.60    2.90
  -2   7  -9   10.70    7.00
  -2   7  -9    7.60    4.60
  -2   7  -9   11.70    4.20
  -2  -7  -9    9.50    4.40
   2  -7   9    2.30    2.90
   2  -7   9    5.80    3.20
  -2   7 -10   -0.30    3.60
  -2   7 -10    0.30    5.40
  -2  -7 -10    5.60    4.70
   2  -7  10    2.10    2.60
  -2   7 -11    9.60    5.00
  -2   7 -11   -1.00    6.20
  -2  -7 -11    6.30    4.70
   2  -7  11    2.70    2.80
  -2   7 -12    4.30    7.30
  -2   7 -12    4.90    4.10
   2  -7  12   -2.80    2.40
  -2  -7 -12    5.50    5.10
   2   8 -12   -2.00    4.30
  -2   8  12   -4.00    2.30
   2   8 -12   -0.90    6.70
  -2  -8  12    1.40    3.00
   2  -8 -12    1.70    3.70
   2   8 -11    2.10    6.10
  -2   8  11    4.50    2.90
   2   8 -11    3.40    4.40
   2  -8 -11    3.50    4.00
  -2  -8  11    0.40    3.00
   2   8 -10   87.59   16.30
  -2   8  10  103.79   14.10
   2   8 -10  101.79   22.80
  -2  -8  10  112.69   14.80
   2  -8 -10  123.39   15.80
  -2  -8  10  142.19   18.20
   2   8  -9    2.80    6.10
   2   8  -9    5.00    4.20
  -2   8   9   -1.00    2.00
   2  -8  -9    0.30    3.10
  -2  -8   9   -0.20    3.00
  -2  -8   9    2.60    3.50
  -2   8   8    0.40    2.30
   2   8  -8    4.40    3.00
   2   8  -8   -0.70    3.60
  -2  -8   8    3.70    3.10
  -2  -8   8    1.90    3.60
   2  -8  -8    4.10    3.50
   2   8  -7   -3.50    2.00
  -2   8   7   -1.60    2.00
   2   8  -7    0.00    3.00
   2  -8  -7    2.10    2.70
  -2  -8   7   -1.80    2.70
  -2  -8   7   -2.30    2.90
   2   8  -6   -0.90    3.40
  -2   8   6   -2.40    1.90
   2   8  -6    3.70    3.50
   2  -8  -6   -1.40    2.50
  -2  -8   6    1.70    2.80
  -2  -8   6    0.20    2.70
   2   8  -5   28.70    5.70
   2   8  -5   16.20    5.80
   2   8  -5   17.40    5.40
  -2   8   5   17.60    4.20
  -2  -8   5   22.60    5.60
  -2  -8   5   24.30    5.00
   2   8  -4   44.90    6.80
  -2   8   4   27.40    5.10
   2   8  -4   35.80    7.00
   2   8  -4   26.10    4.40
  -2  -8   4   22.10    5.30
  -2  -8   4   31.20    6.40
  -2   8   3   -0.40    1.90
   2   8  -3    0.00    3.10
   2   8  -3    2.30    1.50
   2   8  -3    5.70    3.30
  -2  -8   3    3.90    3.10
  -2  -8   3    3.60    2.60
   2  -8  -3    1.50    1.60
   2   8  -2    2.90    3.20
  -2   8   2    5.20    2.20
   2   8  -2    4.10    2.90
   2   8  -2   -0.90    1.30
  -2  -8   2   -1.60    2.00
   2  -8  -2    2.00    1.70
  -2  -8   2    0.00    2.80
   2   8  -1   76.59    9.20
  -2   8   1   65.29    9.10
   2   8  -1   46.90   10.10
   2   8  -1   56.09    9.80
   2  -8  -1   73.59    9.60
  -2  -8   1   58.59    9.80
   2  -8  -1   84.99    9.40
  -2  -8   1   79.39   10.00
   2   8   0    2.40    1.90
   2   8   0   -2.40    3.00
   2   8   0    1.40    2.50
  -2   8   0   -0.10    1.70
   2  -8   0    8.50    2.70
  -2  -8   0    2.00    2.20
   2  -8   0    0.30    2.00
   2   8   1  142.69   16.70
  -2   8  -1  112.39   13.90
   2   8   1  122.89   14.20
   2   8   1  107.49   15.10
   2  -8   1  117.19   14.60
   2  -8   1  117.69   14.20
  -2  -8  -1  110.79   14.40
  -2   8  -2   -1.20    1.30
   2   8   2    1.60    2.00
   2   8   2    0.00    2.20
  -2  -8  -2    0.50    2.00
   2  -8   2    0.10    2.50
  -2  -8  -2    2.90    2.10
   2  -8   2    2.30    2.10
   2   8   3   -0.30    1.80
  -2   8  -3    1.30    3.20
   2   8   3   -2.70    1.90
  -2   8  -3   -1.30    1.30
  -2  -8  -3   -2.70    1.70
   2  -8   3   -2.40    1.70
   2  -8   3   -0.20    2.80
  -2  -8  -3    0.90    1.90
   2   8   4   46.50    7.00
  -2   8  -4   43.30    6.20
   2   8   4   52.59    7.30
  -2   8  -4   34.30    8.00
  -2  -8  -4   35.20    6.80
   2  -8   4   47.60    6.90
   2  -8   4   40.50    7.30
   2   8   5  182.28   22.90
  -2   8  -5  163.28   24.20
  -2   8  -5  205.48   22.60
   2   8   5  209.48   23.20
   2  -8   5  208.38   23.70
  -2  -8  -5  210.38   23.50
   2   8   6   31.70    6.00
  -2   8  -6   22.50    7.10
  -2   8  -6   37.30    5.80
   2   8   6   35.00    5.80
  -2   8  -6   26.40    5.60
   2  -8   6   38.70    7.00
  -2  -8  -6   47.40    7.40
   2  -8   6   42.90    6.40
  -2   8  -7   -0.30    2.30
  -2   8  -7   -0.60    2.80
   2   8   7    2.70    2.10
   2   8   7   -0.20    2.40
  -2   8  -7   -2.60    4.30
  -2   8  -7   -1.70    2.00
   2  -8   7   -0.40    3.00
  -2  -8  -7    1.20    3.20
   2  -8   7    1.00    2.40
  -2   8  -8    1.70    3.60
  -2   8  -8    6.60    6.70
  -2   8  -8   -1.50    2.60
   2  -8   8    1.70    2.70
  -2  -8  -8    3.00    3.50
   2  -8   8    5.20    3.50
  -2   8  -9   26.10    7.50
  -2   8  -9   16.40    9.50
   2  -8   9   28.20    6.00
   2  -8   9   33.20    6.00
  -2  -8  -9   43.10    7.70
   2   8  10   15.70    4.90
  -2   8 -10   12.40    5.50
  -2   8 -10   12.00    8.40
   2  -8  10   18.60    4.50
  -2  -8 -10   32.60    6.70
   2   8  11   -0.10    2.90
  -2   8 -11   -2.50    3.70
  -2   8 -11   -2.80    6.30
  -2  -8 -11   -0.50    4.20
   2  -8  11    1.20    3.00
  -2   9  11   -0.20    2.70
   2   9 -11    2.30    7.00
   2   9 -11    8.80    5.80
  -2  -9  11    4.00    3.80
   2   9 -10   -1.40    4.00
  -2   9  10    6.10    2.80
   2   9 -10    0.00    6.80
  -2  -9  10   -4.80    3.30
  -2  -9  10    0.90    3.40
   2   9  -9   13.10    5.70
   2   9  -9    7.30    7.50
  -2   9   9   16.10    3.80
  -2  -9   9   11.30    5.00
  -2  -9   9    7.30    3.90
  -2   9   8    1.90    2.40
   2   9  -8   -2.70    5.10
   2   9  -8    0.70    4.00
  -2  -9   8   -0.50    3.20
  -2  -9   8   -0.40    2.80
  -2   9   7    0.10    2.50
   2   9  -7    2.30    4.70
  -2  -9   7   -1.20    2.90
  -2  -9   7    7.80    4.00
  -2   9   6   -2.90    1.90
   2   9  -6   -1.90    3.70
  -2  -9   6    2.30    3.30
  -2  -9   6   -2.50    2.70
   2   9  -5   34.80    7.10
  -2   9   5   19.90    4.40
   2   9  -5   13.90    6.00
  -2  -9   5   18.50    5.20
  -2  -9   5   17.30    4.70
   2   9  -4   -3.80    3.50
   2   9  -4   -0.90    3.10
  -2   9   4    2.10    2.40
  -2  -9   4    5.00    3.20
  -2  -9   4   -3.10    2.40
  -2   9   3    2.30    2.20
   2   9  -3   -0.50    3.00
   2   9  -3   -0.80    1.70
   2   9  -3    2.00    3.10
  -2  -9   3    2.60    2.90
  -2  -9   3    2.10    2.80
   2  -9  -3    2.10    1.80
   2   9  -2    7.80    2.60
  -2   9   2   13.60    3.50
   2   9  -2   23.50    6.00
   2   9  -2   10.10    4.00
  -2  -9   2    9.60    3.70
   2  -9  -2    6.00    2.60
  -2  -9   2    2.90    3.30
   2   9  -1   24.10    6.20
   2   9  -1   24.70    5.50
   2   9  -1   21.50    4.30
  -2   9   1   21.60    4.40
  -2  -9   1   20.70    5.10
   2  -9  -1   20.70    4.40
   2   9   0  366.96   44.00
  -2   9   0  376.86   42.60
   2   9   0  381.06   43.40
   2   9   0  407.26   42.70
  -2  -9   0  372.56   43.20
   2  -9   0  364.86   42.90
   2   9   1   28.10    6.00
   2   9   1   33.20    5.70
   2   9   1   33.00    7.20
  -2   9  -1   35.70    5.50
   2  -9   1   33.30    6.00
  -2  -9  -1   23.80    5.50
   2  -9   1   31.60    6.10
  -2   9  -2    7.90    4.40
   2   9   2   13.50    3.30
  -2   9  -2    7.10    2.40
   2   9   2    6.50    3.30
   2  -9   2   -2.10    2.50
   2  -9   2    4.10    2.70
   2  -9   2   -0.90    3.10
  -2  -9  -2    7.20    3.10
  -2   9  -3    3.80    3.80
   2   9   3    1.10    2.40
  -2   9  -3    1.40    2.00
   2   9   3    0.30    2.80
   2  -9   3   -0.20    2.60
  -2  -9  -3    4.30    2.40
   2  -9   3    3.40    2.70
   2   9   4   11.00    3.70
  -2   9  -4   19.10    5.80
   2   9   4   14.50    3.80
  -2   9  -4   17.50    3.50
  -2  -9  -4   15.60    4.10
   2  -9   4    8.50    3.60
   2  -9   4    8.00    3.90
  -2   9  -5   53.99   11.00
   2   9   5   67.99    9.50
   2   9   5   73.59    9.50
  -2   9  -5   53.59    8.50
   2  -9   5   57.49    9.20
   2  -9   5   75.39   10.50
  -2  -9  -5   62.59    9.70
  -2   9  -6   66.39   13.30
   2   9   6   75.89   11.20
  -2   9  -6   95.69   11.60
   2   9   6   85.99   11.80
   2  -9   6   77.49   11.60
   2  -9   6   99.39   12.80
  -2  -9  -6   89.89   12.30
   2   9   7   -1.20    2.00
  -2   9  -7   -1.20    3.40
  -2   9  -7    2.20    2.80
  -2   9  -7   -2.30    5.90
   2   9   7   -2.90    2.60
   2  -9   7   -2.10    2.10
  -2  -9  -7   -4.00    2.60
   2  -9   7   -0.20    2.90
   2   9   8   -2.60    2.60
  -2   9  -8    2.50    4.10
  -2   9  -8   -0.10    5.70
  -2  -9  -8   -2.60    2.90
   2  -9   8   -3.90    2.70
   2  -9   8    1.10    2.20
  -2   9  -9   -2.20    3.60
  -2   9  -9   -2.40    5.70
   2   9   9   -3.80    2.60
   2  -9   9    3.90    3.60
   2  -9   9    0.60    2.30
  -2  -9  -9    2.50    3.70
  -2   9 -10   -1.50    6.60
   2   9  10    2.80    3.10
  -2   9 -10    0.60    4.30
  -2  -9 -10    0.60    4.00
   2  -9  10    4.10    3.80
   2  -9  10    3.20    3.10
   2  10  -9    7.10    8.30
   2  10  -9    5.10    5.50
  -2  10   9    1.50    2.70
  -2 -10   9    1.90    4.60
  -2 -10   9    3.00    3.80
   2  10  -8    3.90    5.20
   2  10  -8   -1.20    6.00
  -2  10   8    1.10    2.50
  -2 -10   8   -1.60    2.80
  -2 -10   8   -2.20    3.30
   2  10  -7   -0.60    3.80
  -2  10   7   -0.20    2.60
  -2 -10   7   -2.10    2.90
  -2 -10   7    0.40    3.70
  -2  10   6    0.80    2.80
   2  10  -6    2.50    4.40
  -2 -10   6   -1.00    2.80
  -2 -10   6   -4.40    3.30
   2  10  -5   85.59   17.30
  -2  10   5  132.09   15.10
  -2 -10   5  121.39   16.00
  -2 -10   5  133.29   16.90
   2  10  -4    1.80    3.80
   2  10  -4    1.90    4.50
  -2  10   4    3.50    2.80
  -2 -10   4    2.70    3.50
  -2 -10   4   -0.70    3.00
   2  10  -3    3.50    3.80
  -2  10   3    0.70    2.50
   2  10  -3    2.90    2.80
  -2 -10   3    0.60    3.40
   2  10  -2    7.00    4.30
   2  10  -2    4.10    3.40
   2  10  -2    2.90    2.40
  -2  10   2   -2.70    2.00
  -2 -10   2   -1.30    3.00
   2 -10  -2    1.10    2.30
   2  10  -1   -1.30    2.00
   2  10  -1   -1.90    2.90
   2  10  -1    8.60    4.30
  -2  10   1    1.30    2.20
  -2 -10   1   -0.80    2.70
   2 -10  -1   -1.00    2.10
   2  10   0   26.10    6.50
   2  10   0   28.10    5.90
   2  10   0   24.60    4.50
  -2  10   0   18.60    4.20
  -2 -10   0   18.10    4.90
   2 -10   0   15.60    4.30
  -2  10  -1   26.20    5.10
   2  10   1   30.20    5.70
   2  10   1   40.60    7.00
  -2 -10  -1   34.40    6.10
   2 -10   1   27.40    5.60
  -2  10  -2   -0.40    3.00
   2  10   2    4.10    3.30
   2  10   2   -3.50    2.30
  -2  10  -2   -0.10    2.10
  -2 -10  -2   -2.90    2.30
   2 -10   2   -2.80    2.70
   2  10   3   -3.50    2.30
  -2  10  -3    4.50    4.30
   2  10   3   -2.30    2.20
  -2  10  -3    1.00    2.30
   2 -10   3   -1.20    2.90
  -2  10  -4   15.70    6.30
   2  10   4   27.60    5.20
   2  10   4   26.20    5.30
  -2  10  -4   22.90    4.60
   2 -10   4   16.90    5.10
   2 -10   4   19.20    4.80
  -2  10  -5   40.00    6.40
   2  10   5   54.59    7.40
  -2  10  -5   19.90    7.60
   2  10   5   39.60    6.80
   2 -10   5   41.10    7.50
   2 -10   5   36.00    6.50
  -2  10  -6    2.90    4.30
   2  10   6   -1.60    2.40
   2  10   6    1.90    2.90
  -2  10  -6    0.90    3.10
   2 -10   6    1.30    2.60
   2 -10   6    1.60    3.30
  -2  10  -7    2.50    6.80
   2  10   7   -1.60    3.20
  -2  10  -7    0.50    4.20
  -2 -10  -7   -4.60    3.00
   2 -10   7   -1.40    2.90
   2 -10   7    1.10    2.60
  -2  10  -8    3.40    5.00
  -2  10  -8    1.10    7.80
   2  10   8    0.20    3.20
  -2 -10  -8    0.30    3.60
   2 -10   8    1.20    2.80
   2 -10   8   -1.80    3.20
  -2  11   6   15.50    4.40
   2  11  -6   20.00    7.20
  -2 -11   6   21.70    5.30
  -2 -11   6    9.40    5.10
  -2  11   5   55.19    8.50
   2  11  -5   41.80   10.60
  -2 -11   5   58.89    9.80
  -2  11   4   25.70    5.40
   2  11  -4   19.40    7.10
  -2 -11   4   28.30    6.70
   2  11  -3    1.20    4.70
  -2  11   3    3.10    2.80
  -2 -11   3    3.90    3.80
  -2  11   2    1.70    2.70
   2  11  -2    7.20    4.80
  -2 -11   2    4.10    3.50
   2  11  -1   13.00    5.20
   2  11  -1    2.30    2.70
  -2  11   1    0.90    2.50
   2 -11  -1    3.40    2.70
  -2 -11   1    8.40    3.80
   2  11   0    7.10    4.60
  -2  11   0    1.30    2.50
   2  11   0   -0.40    2.40
   2 -11   0   -3.00    2.40
  -2 -11   0   -0.90    2.70
  -2  11  -1    5.00    2.90
  -2  11  -1    2.10    5.80
   2  11   1    8.10    4.40
   2  11   1    2.10    2.80
  -2 -11  -1    3.10    3.10
   2 -11   1    6.60    3.40
  -2  11  -2    4.40    4.30
  -2  11  -2    3.40    2.60
   2  11   2    2.30    2.90
   2  11   2    0.20    3.30
   2 -11   2   -1.10    2.60
   2  11   3    1.30    2.90
   2  11   3    4.60    3.30
  -2  11  -3    2.40    2.80
  -2  11  -3    3.20    4.20
   2 -11   3   -0.80    2.80
   2  11   4    1.60    3.00
  -2  11  -4    4.00    3.30
  -2  11  -4    2.50    4.40
   2 -11   4    4.60    3.80
  -2  11  -5   33.30    6.00
  -2  11  -5   19.60    7.10
   2  11   5   20.10    5.00
   2 -11   5   20.60    5.50
   3   0 -16   -5.70    3.70
   3   0 -16    0.70    7.40
   3   0 -16   -2.40    5.90
   3   0 -16    1.00    4.80
   3   0 -15   -1.80    5.40
   3   0 -15    0.70    4.70
   3   0 -15   -3.90    4.00
   3   0 -15   -4.00    2.90
   3   0 -14   60.19   14.30
   3   0 -14   57.59   10.20
   3   0 -14   59.19   11.40
   3   0 -14   66.99   11.50
   3   0 -13    0.90    3.00
   3   0 -13   -1.40    4.60
   3   0 -13    1.10    4.00
   3   0 -13    4.50    4.30
   3   0 -12   17.40    4.90
   3   0 -12    8.90    3.20
   3   0 -12    9.50    6.20
   3   0 -12   14.30    4.20
   3   0 -12   23.80    6.40
   3   0 -11    3.90    3.50
   3   0 -11    0.10    2.00
   3   0 -11    0.30    2.80
   3   0 -11   -2.30    1.90
   3   0 -11    0.00    3.70
   3   0 -10    0.20    3.50
   3   0 -10    0.10    2.00
   3   0 -10    0.20    2.60
  -3   0  10    0.90    1.10
   3   0 -10    1.20    1.70
   3   0 -10    0.10    2.40
   3   0  -9    0.20    2.30
  -3   0   9   -1.90    0.80
   3   0  -9   -0.20    2.70
   3   0  -9   -1.40    1.40
   3   0  -9   -0.90    1.70
   3   0  -9    0.40    1.60
   3   0  -9   -0.70    1.60
   3   0  -8  618.14   70.59
   3   0  -8  670.53   69.69
   3   0  -8  571.54   72.29
   3   0  -8  680.63   69.89
  -3   0   8  588.94   69.39
   3   0  -8  612.74   70.49
  -3   0   8  674.53   69.39
   3   0  -7   -1.20    1.50
   3   0  -7   -0.60    0.90
   3   0  -7   -1.10    1.20
   3   0  -7   -0.70    1.90
   3   0  -7   -0.10    1.20
   3   0  -7    0.60    1.30
  -3   0   7    0.90    0.80
  -3   0   7    0.10    0.80
   3   0  -6   74.39    9.90
   3   0  -6   71.19   10.50
  -3   0   6   77.29    8.40
   3   0  -6   79.89    8.70
   3   0  -6   82.19    9.50
   3   0  -6   64.39    9.00
  -3   0   6   70.69    8.50
   3   0  -5   -0.80    0.60
  -3   0   5    1.00    0.60
   3   0  -5    0.90    1.70
   3   0  -5    0.40    1.50
   3   0  -5   -0.80    1.10
   3   0  -4   47.20    5.20
  -3   0   4   42.80    5.30
   3   0  -4   45.50    6.50
   3   0  -3    0.30    0.40
  -3   0   3   -1.40    0.50
  -3   0   2   76.49    8.60
  -3   0   1    0.80    0.50
  -3   0   1    0.20    0.30
  -3   0   0  578.64   59.89
  -3   0   0  519.55   59.99
  -3   0  -1    0.00    0.60
  -3   0  -2   54.79    6.50
  -3   0  -3    0.50    0.20
  -3   0  -3   -0.50    0.80
  -3   0  -3   -1.50    0.70
  -3   0  -3    0.10    0.90
  -3   0  -3   -0.10    0.70
   3   0   3    0.10    0.20
   3   0   4  138.59   14.10
  -3   0  -4  120.89   14.50
  -3   0  -4  130.29   14.60
  -3   0  -4  135.89   14.60
  -3   0  -4  106.99   15.20
  -3   0  -4  138.39   14.50
   3   0   4  136.99   13.80
  -3   0  -4   96.79   14.40
  -3   0  -5   -0.50    1.10
  -3   0  -5    0.30    1.80
  -3   0  -5   -1.70    0.80
  -3   0  -5   -0.10    1.20
  -3   0  -5   -0.50    1.00
  -3   0  -5    1.50    1.50
   3   0   5   -0.60    0.40
   3   0   5    0.80    0.60
  -3   0  -6 1791.02  231.08
  -3   0  -6 2216.98  231.28
   3   0   6 2302.77  230.38
  -3   0  -6 2124.09  230.98
  -3   0  -6 2149.98  231.08
   3   0   6 2162.08  230.08
  -3   0  -6 2053.19  232.68
  -3   0  -6 2106.99  230.98
   3   0   7    1.40    0.90
  -3   0  -7   -1.90    1.50
  -3   0  -7   -0.20    1.70
  -3   0  -7    1.40    3.00
  -3   0  -7    1.20    1.90
  -3   0  -7   -0.60    1.40
  -3   0  -7   -0.10    1.80
  -3   0  -8   16.30    3.70
  -3   0  -8    7.40    3.20
   3   0   8   16.10    2.30
  -3   0  -8   15.70    4.00
  -3   0  -8   10.00    3.30
  -3   0  -8   14.30    5.50
  -3   0  -9   -2.00    2.10
  -3   0  -9   -0.20    2.10
  -3   0  -9   -0.30    3.50
   3   0   9   -0.80    0.80
  -3   0  -9   -3.00    1.80
  -3   0  -9    2.30    2.60
  -3   0 -10   12.30    5.90
   3   0  10    5.40    1.70
  -3   0 -10    4.30    3.20
  -3   0 -10   10.00    3.70
  -3   0 -10    4.10    3.50
  -3   0 -10    6.20    3.20
  -3   0 -11    1.60    3.30
  -3   0 -11   -0.60    3.20
  -3   0 -11   -2.00    2.60
  -3   0 -11    3.60    3.40
  -3   0 -11   -1.60    4.00
  -3   0 -12   94.99   15.20
  -3   0 -12   89.79   15.10
  -3   0 -12  125.39   15.50
  -3   0 -12  102.69   18.90
  -3   0 -12  145.39   16.00
  -3   0 -13   -3.30    3.10
  -3   0 -13    0.40    3.80
  -3   0 -13    6.60    5.00
  -3   0 -13    2.70    5.80
  -3   0 -14   -0.40    6.30
  -3   0 -14    6.80    5.70
  -3   0 -14    6.00    4.50
  -3   0 -14    3.50    4.60
  -3   0 -15   -8.60    4.90
  -3   0 -15    4.10    4.20
  -3   0 -15   -6.50    6.80
   3   1 -16    3.90    7.50
   3   1 -16   -0.70    5.20
   3   1 -16    2.80    4.50
   3  -1 -16    1.50    6.30
   3  -1 -16   -1.40    4.30
   3  -1 -16   -4.60    6.70
   3  -1 -16    5.00    5.50
   3   1 -15   -3.30    5.30
   3   1 -15    5.30    5.40
   3   1 -15   -1.50    4.40
   3   1 -15    2.10    3.70
   3  -1 -15   -3.70    3.60
   3  -1 -15   -4.60    4.40
   3  -1 -15    2.30    5.20
   3  -1 -15   -0.80    5.90
   3   1 -14   14.70    8.50
   3   1 -14   17.50    6.40
   3   1 -14   13.40    6.00
   3   1 -14   11.00    4.60
   3  -1 -14   13.80    6.00
   3  -1 -14   20.40    8.30
   3  -1 -14    7.00    4.30
   3  -1 -14    6.40    5.50
   3   1 -13   54.49   10.00
   3   1 -13   50.99    9.60
   3   1 -13   43.90    9.00
   3   1 -13   49.10   13.40
   3  -1 -13   42.20    9.00
   3  -1 -13   60.39   10.30
   3  -1 -13   57.39   12.90
   3  -1 -13   50.49    8.50
   3   1 -12    0.30    3.00
   3   1 -12    0.30    4.50
   3   1 -12   -1.40    2.10
   3   1 -12   -4.00    3.10
   3   1 -12   -1.20    3.00
   3  -1 -12   -1.20    3.80
   3  -1 -12    7.70    4.10
   3  -1 -12   -1.40    2.00
   3  -1 -12    3.20    2.80
   3  -1 -12    3.10    3.50
   3   1 -11    9.00    3.60
   3   1 -11    6.10    5.30
   3   1 -11    7.70    4.00
   3   1 -11    8.40    2.80
   3   1 -11   10.80    4.50
   3  -1 -11    8.20    2.60
   3  -1 -11    6.80    3.00
   3  -1 -11    4.40    2.80
   3  -1 -11    8.50    4.10
   3  -1 -11    0.40    2.80
   3  -1 -11    9.00    5.00
   3   1 -10    0.80    2.30
   3   1 -10    1.00    2.90
  -3   1  10    1.30    1.40
   3   1 -10    2.00    1.80
   3   1 -10    0.70    3.40
   3   1 -10   -2.90    2.10
   3  -1 -10    0.40    2.70
  -3  -1  10    0.90    1.20
  -3  -1  10   -0.70    1.30
   3  -1 -10    2.70    2.00
   3  -1 -10   -0.40    3.10
   3  -1 -10    0.40    1.60
   3  -1 -10    2.30    2.10
   3  -1 -10   -1.20    2.30
   3   1  -9   59.59    9.40
  -3   1   9   52.49    7.00
   3   1  -9   63.99    7.70
   3   1  -9   46.00    8.40
   3   1  -9   49.30    8.30
   3   1  -9   67.59   13.00
   3  -1  -9   59.29    7.60
   3  -1  -9   53.89    8.70
   3  -1  -9   53.39    8.10
   3  -1  -9   56.99    8.10
   3  -1  -9   39.50    9.60
  -3  -1   9   55.99    6.90
  -3  -1   9   71.29    7.10
   3  -1  -9   78.99   10.00
   3   1  -8   93.49   13.40
  -3   1   8  101.89   12.50
   3   1  -8  122.49   14.00
   3   1  -8  119.39   12.80
   3   1  -8  111.49   13.70
   3   1  -8  102.19   15.90
  -3  -1   8  106.79   12.50
   3  -1  -8   91.59   12.90
   3  -1  -8  128.89   12.80
   3  -1  -8  129.99   13.20
   3  -1  -8   96.69   14.80
   3  -1  -8  109.39   13.70
   3  -1  -8  119.29   13.80
  -3  -1   8  117.19   12.60
   3   1  -7   -0.40    1.40
  -3   1   7   -0.60    0.70
   3   1  -7   -2.40    1.70
   3   1  -7    0.10    0.90
   3   1  -7    1.00    1.70
   3   1  -7    0.50    2.50
   3  -1  -7    0.10    2.00
  -3  -1   7    0.80    0.80
   3  -1  -7   -0.70    1.30
   3  -1  -7   -0.50    1.70
   3  -1  -7    0.40    1.80
   3  -1  -7    1.60    1.30
  -3  -1   7    0.20    0.90
   3  -1  -7   -2.40    0.70
   3   1  -6   12.30    3.10
   3   1  -6   17.40    2.50
   3   1  -6   15.50    3.30
   3   1  -6   13.90    2.20
   3   1  -6    8.60    2.60
  -3   1   6   10.30    2.00
   3   1  -6   14.50    4.70
   3  -1  -6   20.80    3.60
   3  -1  -6   11.30    2.40
   3  -1  -6   11.40    2.10
   3  -1  -6   19.10    3.50
   3  -1  -6   14.10    3.90
   3  -1  -6   14.80    2.50
  -3  -1   6   12.20    2.20
  -3  -1   6   10.70    2.00
   3   1  -5   31.00    4.00
   3   1  -5   31.40    4.80
   3   1  -5   38.50    5.20
   3   1  -5   25.30    5.00
  -3   1   5   29.10    3.90
   3   1  -5   30.80    6.40
   3  -1  -5   32.60    3.80
   3  -1  -5   31.30    4.80
   3  -1  -5   28.60    5.40
  -3  -1   5   27.90    4.00
   3  -1  -5   37.20    5.20
  -3  -1   5   29.90    4.00
   3   1  -4 3263.67  387.66
   3   1  -4 3729.33  387.06
   3   1  -4 3348.66  386.96
  -3   1   4 3109.09  386.96
   3   1  -4 3953.00  387.66
  -3  -1   4 3530.45  386.96
   3  -1  -4 3603.24  387.46
   3  -1  -4 3916.01  386.96
   3   1  -3  336.47   37.90
   3   1  -3  358.36   38.10
  -3  -1   3  347.97   38.00
   3   1  -2   23.60    3.10
  -3  -1   2   26.60    3.10
   3   1  -1    3.30    0.70
  -3  -1   1    3.50    0.70
   3   1   0   26.70    3.30
  -3  -1   0   27.50    3.30
  -3  -1   0   30.50    3.20
  -3   1  -1 1093.49  109.09
   3   1   1  975.30  108.79
  -3   1  -1  981.30  108.79
  -3  -1  -1 1034.10  108.79
  -3  -1  -1  916.41  108.99
  -3   1  -2  615.64   67.49
  -3   1  -2  656.93   67.89
  -3  -1  -2  590.04   67.79
  -3   1  -3    4.20    1.30
  -3   1  -3    1.70    1.10
  -3   1  -3    4.00    0.70
  -3   1  -3    4.20    1.30
  -3   1  -3   13.70    2.00
  -3  -1  -3    3.20    1.20
  -3  -1  -3    3.00    1.20
  -3  -1  -3    2.30    1.00
   3  -1   3    3.70    0.70
   3  -1   3    5.90    1.20
  -3  -1  -3    5.50    1.80
  -3   1  -4   20.30    3.30
  -3   1  -4   18.50    3.20
  -3   1  -4   18.70    4.60
   3   1   4   22.20    2.60
  -3   1  -4   22.30    3.80
  -3   1  -4   22.40    2.60
  -3   1  -4   16.80    3.20
  -3   1  -4   23.00    3.40
  -3  -1  -4   19.40    3.20
  -3  -1  -4   27.00    3.40
   3  -1   4   19.70    2.50
  -3  -1  -4   17.80    3.60
  -3  -1  -4   19.00    3.20
   3  -1   4   22.40    3.00
  -3  -1  -4   18.40    3.80
  -3   1  -5   33.40    4.50
   3   1   5   31.00    3.30
  -3   1  -5   28.30    3.30
  -3   1  -5   24.00    4.60
   3   1   5   22.80    2.90
  -3   1  -5   28.00    4.30
  -3   1  -5   25.80    4.10
  -3   1  -5   22.70    5.80
  -3   1  -5   25.10    4.10
  -3  -1  -5   28.20    4.20
  -3  -1  -5   23.10    4.00
  -3  -1  -5   26.00    5.10
   3  -1   5   28.30    3.60
   3  -1   5   23.10    3.10
  -3  -1  -5   25.30    4.50
  -3  -1  -5   22.90    4.00
  -3  -1  -5   34.40    4.00
  -3   1  -6   85.39   13.00
  -3   1  -6   92.99   11.00
  -3   1  -6   70.89   11.20
  -3   1  -6  101.59   11.00
  -3   1  -6   92.19   11.10
  -3   1  -6  112.39   10.30
   3   1   6   88.59    9.90
   3   1   6   99.49   10.20
  -3   1  -6   79.59   11.30
  -3  -1  -6   84.29   10.90
  -3  -1  -6   86.39   12.10
   3  -1   6   87.79   10.00
  -3  -1  -6   75.29   10.80
   3  -1   6   87.99   10.40
  -3  -1  -6   81.69   11.70
  -3  -1  -6   77.79   10.70
  -3  -1  -6  101.29   10.80
  -3   1  -7  544.35   59.09
  -3   1  -7  500.95   61.49
  -3   1  -7  551.04   59.29
  -3   1  -7  437.76   59.39
  -3   1  -7  534.35   59.09
   3   1   7  582.64   58.29
  -3   1  -7  521.95   59.19
  -3  -1  -7  535.75   59.39
   3  -1   7  555.04   58.49
  -3  -1  -7  498.65   59.09
  -3  -1  -7  540.25   60.69
  -3  -1  -7  596.74   58.99
  -3  -1  -7  532.95   59.09
  -3  -1  -7  488.85   58.99
  -3   1  -8    2.50    2.40
  -3   1  -8    3.00    2.30
  -3   1  -8    6.50    2.40
   3   1   8    9.80    1.70
  -3   1  -8    7.50    4.90
  -3   1  -8    8.70    3.50
  -3   1  -8    7.00    2.80
  -3  -1  -8    6.20    2.60
   3  -1   8    6.60    1.70
  -3  -1  -8   11.70    4.70
  -3  -1  -8    7.30    3.20
  -3  -1  -8    8.90    3.10
  -3  -1  -8   13.20    3.60
  -3   1  -9    2.20    2.90
  -3   1  -9    3.40    2.80
   3   1   9    3.50    1.20
  -3   1  -9    5.10    2.90
  -3   1  -9    3.90    2.70
  -3   1  -9    4.20    2.40
  -3   1  -9    3.40    4.40
  -3  -1  -9    3.70    2.90
   3  -1   9    6.30    1.60
  -3  -1  -9    2.90    2.60
  -3  -1  -9   10.40    5.30
  -3  -1  -9    7.10    3.30
  -3  -1  -9    3.70    3.00
  -3   1 -10   49.70    8.40
  -3   1 -10   50.19    9.40
  -3   1 -10   57.59    8.90
  -3   1 -10   62.89    9.40
  -3   1 -10   55.79   12.80
  -3  -1 -10   55.49    9.10
  -3  -1 -10   63.39    9.50
  -3  -1 -10   49.50    8.60
  -3  -1 -10   60.59   12.00
  -3  -1 -10   59.39    8.50
   3  -1  10   50.09    6.70
  -3   1 -11   63.49    8.90
  -3   1 -11   56.09    8.60
  -3   1 -11   34.00   10.60
  -3   1 -11   31.80    8.00
  -3   1 -11   54.29    8.90
   3  -1  11   46.30    6.10
  -3  -1 -11   57.69    9.20
  -3  -1 -11   46.40   11.10
  -3  -1 -11   56.89    8.50
  -3  -1 -11   45.10    8.60
  -3  -1 -11   50.29    8.00
  -3   1 -12    1.50    3.30
  -3   1 -12   -0.40    3.60
  -3   1 -12    0.10    3.10
  -3   1 -12   -4.40    3.00
  -3   1 -12   -2.60    4.70
  -3  -1 -12   -2.90    3.10
  -3  -1 -12    1.10    2.90
  -3  -1 -12   -0.70    4.30
  -3  -1 -12   -1.80    5.30
  -3  -1 -12    0.90    2.80
  -3   1 -13    1.00    3.90
  -3   1 -13   -1.50    3.80
  -3   1 -13   -1.90    2.70
  -3   1 -13   -1.80    5.00
  -3  -1 -13    7.50    3.70
  -3  -1 -13    4.80    4.40
  -3  -1 -13   -6.90    4.20
  -3  -1 -13   -8.40    5.80
  -3   1 -14    5.20    3.80
  -3   1 -14   -2.20    5.70
  -3   1 -14   -2.90    5.60
  -3   1 -14    1.50    4.70
  -3  -1 -14    5.00    5.40
  -3  -1 -14   -2.60    7.30
  -3  -1 -14    1.60    4.20
  -3  -1 -14   -1.90    3.30
  -3   1 -15   -4.80    6.30
  -3   1 -15   -2.00    5.20
  -3   1 -15   10.80    4.90
  -3  -1 -15    1.00    6.20
  -3  -1 -15    5.40    4.30
  -3  -1 -15    3.50    9.20
  -3  -1 -15    1.00    4.80
   3   2 -16    5.20    5.20
   3   2 -16    1.90    7.60
   3   2 -16   -0.10    4.00
   3  -2 -16   -5.50    5.70
   3  -2 -16    0.30    4.30
   3  -2 -16   -2.60    7.60
   3  -2 -16   -5.40    4.70
   3   2 -15    1.50    3.40
   3   2 -15    6.70    5.10
   3   2 -15   -2.60    5.40
   3  -2 -15   -0.80    4.00
   3  -2 -15    0.90    7.30
   3  -2 -15    2.50    5.50
   3  -2 -15    3.70    5.00
   3   2 -14    4.30    5.40
   3   2 -14   10.80    7.80
   3   2 -14    6.40    4.30
   3   2 -14    0.90    4.10
   3  -2 -14   -1.20    4.90
   3  -2 -14   16.20    8.20
   3  -2 -14   29.60    7.20
   3  -2 -14    8.20    4.30
   3   2 -13   34.20    7.70
   3   2 -13   17.10    6.50
   3   2 -13   18.50    6.20
   3   2 -13   23.60    9.60
   3  -2 -13   34.60    6.40
   3  -2 -13   46.30    8.90
   3  -2 -13   31.60    6.60
   3  -2 -13   31.00    7.30
   3  -2 -13   41.00   10.30
   3   2 -12    3.70    6.10
   3   2 -12   -5.90    2.90
   3   2 -12   -4.00    2.90
   3   2 -12    0.20    2.70
   3  -2 -12   -0.80    1.90
   3  -2 -12   -1.40    2.50
   3  -2 -12    0.30    4.70
   3  -2 -12    0.10    3.80
   3  -2 -12   -1.10    3.30
   3  -2 -12   -2.40    2.60
  -3  -2  12    1.70    2.60
   3   2 -11    5.00    3.20
   3   2 -11    0.80    4.80
   3   2 -11    3.60    2.30
   3   2 -11   -0.40    2.90
   3   2 -11    4.30    3.90
   3  -2 -11    3.80    4.20
   3  -2 -11    2.40    2.60
   3  -2 -11   -0.10    1.70
   3  -2 -11    2.20    2.70
   3  -2 -11    2.10    3.30
   3  -2 -11    2.20    3.50
  -3  -2  11    6.40    2.10
   3   2 -10    8.60    3.70
  -3   2  10   13.30    2.40
   3   2 -10   10.80    6.30
   3   2 -10    4.80    3.20
   3   2 -10   10.10    4.00
   3   2 -10   10.80    2.90
   3  -2 -10   11.40    5.10
   3  -2 -10    7.00    2.90
   3  -2 -10   15.60    4.60
   3  -2 -10    8.00    3.10
   3  -2 -10    8.20    3.50
   3  -2 -10    6.90    2.40
  -3  -2  10   12.10    2.70
  -3  -2  10   14.20    2.50
   3   2  -9   67.69   10.20
   3   2  -9   87.49   11.50
   3   2  -9   77.99   15.00
   3   2  -9   70.09    9.20
   3   2  -9   78.19   11.20
  -3   2   9   68.59    8.60
   3  -2  -9   70.09   11.10
   3  -2  -9   79.29   10.80
   3  -2  -9   73.09    8.70
   3  -2  -9   74.19    9.10
  -3  -2   9   58.49    8.80
  -3  -2   9   71.59    8.50
   3  -2  -9   67.79    9.70
   3  -2  -9   69.49   10.60
   3   2  -8  538.25   55.59
   3   2  -8  426.46   55.29
   3   2  -8  489.85   54.49
   3   2  -8  462.95   58.09
  -3   2   8  491.45   54.19
   3   2  -8  519.25   55.29
  -3  -2   8  476.45   54.19
   3  -2  -8  493.25   55.29
   3  -2  -8  504.45   55.29
  -3  -2   8  497.65   54.39
   3  -2  -8  476.85   54.49
   3  -2  -8  533.35   54.39
   3  -2  -8  516.45   54.79
   3  -2  -8  489.45   56.29
  -3   2   7   63.09    7.90
   3   2  -7   56.79   11.60
   3   2  -7   69.89    9.80
   3   2  -7   53.79    9.30
   3   2  -7   67.69    8.10
   3   2  -7   65.79    8.10
   3   2  -7   67.79    9.20
   3  -2  -7   75.49    9.70
   3  -2  -7   66.79    8.20
  -3  -2   7   64.49    8.10
   3  -2  -7   64.49    9.50
  -3  -2   7   71.09    7.90
   3  -2  -7   62.99    9.20
   3  -2  -7   79.89    8.10
   3  -2  -7   71.19    8.50
  -3   2   6  147.59   16.60
   3   2  -6  146.39   16.90
   3   2  -6  114.19   17.30
   3   2  -6  158.28   16.70
   3   2  -6  152.98   17.70
   3   2  -6  153.08   19.60
   3   2  -6  131.29   17.20
   3  -2  -6  169.58   16.70
   3  -2  -6  142.09   17.80
   3  -2  -6  170.98   17.20
  -3  -2   6  153.98   16.60
   3  -2  -6  150.18   16.70
   3  -2  -6  129.89   17.30
  -3  -2   6  138.89   16.80
   3  -2  -6  145.09   17.30
   3   2  -5   84.89    9.50
   3   2  -5   82.79   10.40
   3   2  -5   83.79    9.80
   3   2  -5   79.79   10.20
   3   2  -5   76.79   10.00
   3  -2  -5   65.89   10.00
   3  -2  -5   95.59   10.60
   3  -2  -5   87.49    9.50
   3  -2  -5   78.89    9.80
  -3  -2   5   74.69    9.60
   3  -2  -5   95.69   10.20
  -3  -2   5   80.89    9.50
   3   2  -4 1485.15  167.38
   3   2  -4 1659.23  167.58
   3   2  -4 1444.56  167.08
   3   2  -4 1508.55  166.68
   3   2  -4 1671.33  167.18
  -3  -2   4 1507.05  166.98
   3  -2  -4 1468.25  167.28
   3  -2  -4 1531.65  167.08
  -3  -2   4 1498.65  166.78
   3   2  -3 1839.62  202.08
   3   2  -3 1889.41  202.48
  -3  -2   3 1832.22  202.28
  -3  -2   3 1842.12  201.98
   3  -2  -3 1870.21  202.38
   3   2  -2  567.84   62.39
  -3  -2   2  574.54   62.39
   3   2  -1    0.90    0.60
  -3  -2   1    1.20    0.60
   3   2   0   86.09    9.30
  -3   2   0   84.19    9.30
  -3  -2   0   81.49    9.30
   3   2   1  551.54   58.89
  -3   2  -1  547.55   58.99
  -3  -2  -1  509.55   58.99
  -3  -2  -1  548.65   58.89
   3   2   2 1163.98  126.39
  -3   2  -2 1202.88  126.39
   3   2   2 1134.19  126.09
  -3   2  -2 1127.59  126.19
   3  -2   2 1164.28  126.39
  -3  -2  -2 1266.07  126.29
  -3  -2  -2 1042.00  126.29
  -3   2  -3  281.17   35.70
  -3   2  -3  336.07   35.40
  -3   2  -3  307.57   35.00
  -3   2  -3  336.27   35.40
   3   2   3  311.67   35.20
  -3   2  -3  300.57   35.60
   3   2   3  330.27   34.90
  -3  -2  -3  308.67   35.60
   3  -2   3  335.87   35.40
   3  -2   3  318.87   35.50
  -3  -2  -3  322.07   35.30
   3  -2   3  305.37   35.00
  -3  -2  -3  312.47   35.30
  -3  -2  -3  357.76   35.30
  -3   2  -4   27.30    4.10
   3   2   4   28.40    3.30
   3   2   4   30.50    3.70
  -3   2  -4   26.60    4.80
   3   2   4   28.40    3.30
  -3   2  -4   27.30    4.20
  -3   2  -4   28.90    3.50
  -3   2  -4   28.40    6.30
  -3   2  -4   33.50    4.40
  -3   2  -4   28.10    4.20
  -3  -2  -4   33.70    3.90
  -3  -2  -4   29.50    4.00
  -3  -2  -4   24.90    3.70
  -3  -2  -4   29.30    4.20
   3  -2   4   26.30    3.40
  -3  -2  -4   48.10    5.50
  -3  -2  -4   19.30    4.30
   3  -2   4   24.40    4.00
   3  -2   4   27.50    3.90
  -3   2  -5   49.20    6.80
  -3   2  -5   40.60    7.30
  -3   2  -5   45.60    6.80
   3   2   5   51.59    6.10
  -3   2  -5   54.39    6.00
  -3   2  -5   58.59    7.20
   3   2   5   49.80    5.70
  -3   2  -5   43.80    6.60
  -3   2  -5   57.49   10.10
   3   2   5   51.89    5.70
   3  -2   5   52.99    5.90
   3  -2   5   54.19    6.50
  -3  -2  -5   66.19    7.90
  -3  -2  -5   55.79    7.70
  -3  -2  -5   45.90    6.30
   3  -2   5   44.90    6.40
  -3  -2  -5   43.20    6.60
  -3  -2  -5   48.30    6.40
  -3   2  -6  172.18   23.50
  -3   2  -6  175.38   21.10
   3   2   6  186.08   20.50
  -3   2  -6  176.08   21.10
  -3   2  -6  187.28   21.10
  -3   2  -6  177.98   21.20
  -3   2  -6  153.58   21.50
  -3  -2  -6  155.68   21.30
  -3  -2  -6  217.58   22.40
  -3  -2  -6  177.48   20.90
  -3  -2  -6  195.88   20.90
   3  -2   6  178.18   20.30
   3  -2   6  182.08   20.70
   3  -2   6  212.68   21.00
  -3  -2  -6  188.08   21.10
  -3  -2  -6  188.18   21.10
  -3   2  -7   86.29   12.80
  -3   2  -7   87.49   15.30
  -3   2  -7   87.99   11.40
   3   2   7   90.69   10.50
  -3   2  -7   86.09   11.80
  -3   2  -7  102.69   11.40
  -3   2  -7   89.19   11.30
  -3  -2  -7  103.79   11.50
   3  -2   7   84.49   10.30
  -3  -2  -7  102.99   11.20
  -3  -2  -7   78.79   12.00
  -3  -2  -7  109.09   13.00
  -3  -2  -7   92.49   11.20
  -3  -2  -7   91.89   11.20
   3  -2   7   76.59   10.60
  -3   2  -8   22.30    5.60
  -3   2  -8   21.70    4.90
  -3   2  -8   30.00    5.50
  -3   2  -8   29.90    5.40
  -3   2  -8   20.60    4.40
   3   2   8   29.90    3.80
  -3   2  -8   28.20    8.10
   3  -2   8   25.20    3.90
  -3  -2  -8   27.80    5.60
  -3  -2  -8   35.50    7.40
  -3  -2  -8   24.40    4.80
  -3  -2  -8   21.10    4.50
  -3  -2  -8   28.10    4.70
  -3  -2  -8   22.30    4.70
  -3   2  -9    2.70    3.10
  -3   2  -9   -1.50    2.30
  -3   2  -9    1.80    4.40
  -3   2  -9    5.20    2.70
  -3   2  -9   -0.70    2.50
  -3   2  -9    4.00    2.50
  -3  -2  -9    4.10    2.60
  -3  -2  -9    1.10    2.70
  -3  -2  -9    5.60    4.90
  -3  -2  -9    2.70    2.20
   3  -2   9    2.10    1.40
  -3  -2  -9    4.50    2.80
  -3   2 -10    1.60    5.10
  -3   2 -10    1.50    3.10
  -3   2 -10   -1.40    2.40
  -3   2 -10   -3.50    2.00
  -3   2 -10   -0.70    2.60
  -3   2 -10    1.00    2.60
  -3  -2 -10    5.70    2.70
  -3  -2 -10   -5.90    4.40
  -3  -2 -10   -0.30    2.40
  -3  -2 -10    5.60    3.90
  -3  -2 -10    2.90    3.10
   3  -2  10   -0.80    1.40
  -3   2 -11   10.00    4.00
  -3   2 -11   16.80    4.50
  -3   2 -11    4.50    4.30
  -3   2 -11   12.40    4.50
  -3   2 -11   11.30    7.10
  -3  -2 -11    6.80    3.30
  -3  -2 -11   19.00    5.20
  -3  -2 -11    9.50    7.00
  -3  -2 -11   19.60    5.30
  -3  -2 -11   12.90    4.20
   3  -2  11   10.70    2.40
  -3   2 -12   -2.40    4.90
  -3   2 -12    3.90    3.80
  -3   2 -12    0.60    3.50
  -3   2 -12    7.40    4.20
  -3   2 -12    0.90    3.50
  -3  -2 -12    6.20    7.20
  -3  -2 -12    5.60    4.60
   3  -2  12    1.10    1.50
  -3  -2 -12    1.00    3.10
  -3  -2 -12    1.00    2.60
  -3  -2 -12   -1.70    3.40
  -3   2 -13    4.50    3.80
  -3   2 -13    2.90    5.70
  -3   2 -13   -2.40    3.60
  -3  -2 -13   -2.70    7.20
  -3  -2 -13    0.90    4.10
  -3  -2 -13    3.70    3.60
  -3  -2 -13   -4.80    4.40
  -3   2 -14   -5.20    3.50
  -3   2 -14   -2.50    5.30
  -3   2 -14   -3.70    3.30
  -3  -2 -14   -1.00    5.50
  -3  -2 -14   -7.60    7.90
  -3  -2 -14    0.40    4.20
  -3  -2 -14    0.00    3.70
  -3   2 -15    5.10    4.30
  -3   2 -15    0.30    4.70
  -3   2 -15   -4.90    5.90
  -3  -2 -15   -2.40    4.40
  -3  -2 -15    1.70    5.20
  -3  -2 -15   -8.00    9.90
   3   3 -16    0.60    4.40
   3   3 -16   -5.60    6.30
   3   3 -16    2.50    4.30
   3  -3 -16    2.60    5.40
   3  -3 -16   -2.80    8.60
   3   3 -15   17.30    9.40
   3   3 -15   24.90    7.30
   3   3 -15   13.10    6.10
   3  -3 -15   21.30   10.60
   3  -3 -15   15.20    7.10
   3  -3 -15   17.70    6.70
   3  -3 -15   29.70    5.80
   3   3 -14  124.39   18.40
   3   3 -14   79.09   16.70
   3   3 -14   98.99   22.60
   3  -3 -14  140.19   20.50
   3  -3 -14  131.79   19.10
   3  -3 -14  149.09   15.80
   3  -3 -14  124.29   17.80
   3   3 -13   -2.50    3.10
   3   3 -13   -2.90    3.00
   3   3 -13   -1.00    5.40
   3  -3 -13    2.50    4.50
   3  -3 -13    2.70    3.30
   3  -3 -13    0.60    3.00
  -3  -3  13   -1.30    2.00
   3  -3 -13   -0.20    4.40
   3  -3 -13    5.80    6.90
   3   3 -12    0.80    5.40
   3   3 -12   -1.40    3.50
   3   3 -12    5.10    3.60
   3   3 -12    3.40    3.60
   3  -3 -12    5.70    6.10
   3  -3 -12    1.20    2.70
   3  -3 -12    6.70    3.60
   3  -3 -12    2.60    4.10
  -3  -3  12    7.20    2.50
   3  -3 -12    4.20    2.60
   3  -3 -12    2.80    4.00
   3   3 -11    2.20    5.30
   3   3 -11    4.30    2.50
   3   3 -11    5.20    3.70
   3   3 -11    5.70    3.60
   3   3 -11    3.30    3.60
   3  -3 -11    7.80    3.80
  -3  -3  11    8.50    2.60
   3  -3 -11    6.60    2.40
   3  -3 -11    2.70    5.00
   3  -3 -11    9.90    4.20
   3  -3 -11    4.20    2.70
   3  -3 -11    2.90    2.70
   3   3 -10   -2.20    2.70
   3   3 -10   -0.80    3.60
  -3   3  10    0.30    1.40
   3   3 -10    3.80    2.30
   3   3 -10    0.80    2.80
   3   3 -10    0.30    2.50
   3  -3 -10    0.30    2.90
   3  -3 -10    1.40    2.20
   3  -3 -10    0.50    2.00
   3  -3 -10    0.80    1.60
  -3  -3  10    1.00    1.80
   3  -3 -10    3.80    4.00
   3  -3 -10    0.80    2.80
   3   3  -9   22.70    4.40
   3   3  -9   24.50    5.50
   3   3  -9   27.90    8.80
  -3   3   9   23.30    4.00
   3   3  -9   26.90    5.90
   3   3  -9   17.30    5.20
   3  -3  -9   26.00    4.30
   3  -3  -9   33.60    5.90
  -3  -3   9   22.80    3.80
   3  -3  -9   30.70    5.30
   3  -3  -9   32.60    6.90
   3  -3  -9   31.20    4.30
   3  -3  -9   27.90    5.90
  -3  -3   9   26.20    4.50
   3   3  -8  319.77   40.00
   3   3  -8  346.67   43.40
   3   3  -8  347.67   39.80
  -3   3   8  341.17   38.90
   3   3  -8  328.57   40.30
   3   3  -8  326.27   39.10
   3  -3  -8  337.37   39.50
   3  -3  -8  385.66   40.70
   3  -3  -8  362.76   39.90
   3  -3  -8  354.96   39.00
   3  -3  -8  397.96   39.10
  -3  -3   8  344.57   39.20
   3  -3  -8  337.67   39.90
  -3  -3   8  337.17   38.80
   3   3  -7  413.06   52.29
   3   3  -7  440.26   54.89
  -3   3   7  418.86   51.09
   3   3  -7  407.16   51.99
   3   3  -7  449.76   51.19
   3   3  -7  487.65   51.99
   3   3  -7  459.05   51.49
  -3  -3   7  479.25   51.69
   3  -3  -7  540.85   52.69
   3  -3  -7  541.35   51.19
   3  -3  -7  419.96   51.89
   3  -3  -7  438.96   51.69
  -3  -3   7  438.96   51.39
   3  -3  -7  514.25   51.99
  -3  -3   7  459.25   51.09
   3   3  -6    3.80    1.30
   3   3  -6    4.30    2.20
   3   3  -6    3.20    1.70
   3   3  -6   -0.10    2.10
   3   3  -6    4.10    1.90
  -3  -3   6    2.60    1.00
  -3  -3   6    2.90    1.90
   3  -3  -6    7.10    3.10
   3  -3  -6    1.70    1.80
   3  -3  -6    4.40    2.10
   3  -3  -6    4.90    1.40
  -3  -3   6    0.50    1.40
   3  -3  -6    2.20    1.70
   3   3  -5   -1.50    1.20
   3   3  -5   -0.20    1.90
   3   3  -5    0.20    1.30
   3   3  -5    0.70    1.30
   3   3  -5   -0.10    0.70
   3   3  -5    0.80    1.70
   3  -3  -5    1.00    1.20
  -3  -3   5   -0.40    1.00
   3  -3  -5    0.90    0.80
   3  -3  -5    0.40    1.30
  -3  -3   5   -2.10    1.20
  -3  -3   5   -0.30    0.80
   3  -3  -5    0.00    1.50
   3   3  -4    8.90    1.90
  -3   3   4    7.20    1.70
   3   3  -4    3.40    1.80
   3   3  -4    5.80    1.60
   3   3  -4    8.10    2.40
  -3  -3   4    6.30    1.90
  -3  -3   4    5.20    1.70
   3  -3  -4   11.40    3.30
  -3  -3   4    7.50    1.40
   3  -3  -4    7.10    2.00
   3  -3  -4    4.00    1.60
   3   3  -3  178.98   20.50
   3   3  -3  175.48   20.50
   3   3  -3  172.48   20.60
  -3   3   3  185.28   20.20
  -3  -3   3  186.08   20.40
  -3  -3   3  180.88   20.60
   3  -3  -3  187.18   20.00
  -3  -3   3  175.28   20.00
   3  -3  -3  192.68   20.40
   3  -3  -3  165.48   20.30
  -3   3   2  145.09   16.90
   3   3  -2  145.79   17.40
   3   3  -2  156.08   17.20
   3  -3  -2  161.88   17.00
  -3  -3   2  148.89   17.30
  -3  -3   2  146.89   16.80
  -3  -3   2  158.08   17.20
   3  -3  -2  145.79   16.80
   3   3  -1   49.40    6.40
  -3   3   1   56.29    6.10
   3   3  -1   51.49    6.00
   3   3  -1   60.29    6.70
  -3  -3   1   50.29    6.00
  -3  -3   1   45.70    6.40
  -3  -3   1   53.99    6.40
   3  -3  -1   48.60    6.10
  -3   3   0  139.49   16.00
   3   3   0  135.69   16.20
   3   3   0  141.59   15.80
  -3   3   0  144.19   15.90
  -3  -3   0  140.99   15.80
  -3  -3   0  139.79   16.30
   3  -3   0  156.18   16.20
  -3   3  -1  308.97   33.50
  -3   3  -1  291.17   33.40
   3   3   1  306.77   33.80
   3   3   1  301.67   33.30
  -3  -3  -1  313.07   33.80
  -3  -3  -1  298.87   33.30
   3  -3   1  312.97   33.80
   3  -3   1  303.67   33.60
  -3   3  -2  120.89   12.70
  -3   3  -2  117.99   13.30
   3   3   2  116.09   12.40
   3   3   2  113.09   12.90
  -3  -3  -2  106.79   13.00
   3  -3   2  108.69   12.80
  -3  -3  -2  100.59   12.60
   3  -3   2  121.79   13.10
  -3  -3  -2  104.29   12.80
  -3  -3  -2  116.89   12.70
   3   3   3   22.00    2.60
  -3   3  -3   20.50    3.10
   3   3   3   23.00    3.20
  -3   3  -3   20.80    4.00
  -3  -3  -3   27.10    3.30
   3  -3   3   17.10    3.30
  -3  -3  -3   39.90    5.80
   3  -3   3   15.60    3.00
  -3  -3  -3   18.40    2.90
  -3  -3  -3   20.70    3.00
   3  -3   3   19.00    2.70
  -3  -3  -3   11.90    3.30
  -3   3  -4   -0.50    1.50
  -3   3  -4    2.20    1.10
  -3   3  -4    0.00    2.50
  -3   3  -4   -1.50    0.80
   3   3   4   -0.50    0.50
  -3   3  -4   -0.20    1.20
   3   3   4    0.50    0.90
   3  -3   4    0.60    1.30
  -3  -3  -4    0.50    1.30
  -3  -3  -4    0.30    0.90
  -3  -3  -4   -0.20    0.90
   3  -3   4   -0.10    0.60
  -3  -3  -4    3.60    3.80
   3  -3   4    0.00    1.10
  -3  -3  -4    2.50    1.00
  -3   3  -5   29.30    4.40
  -3   3  -5   33.50    4.70
  -3   3  -5   25.80    6.80
   3   3   5   22.90    3.70
  -3   3  -5   27.10    4.20
  -3   3  -5   27.30    5.20
  -3   3  -5   31.90    4.40
  -3  -3  -5   27.80    3.40
   3  -3   5   23.20    3.40
  -3  -3  -5   29.30    4.90
  -3  -3  -5   22.80    3.80
  -3  -3  -5   28.80    4.00
  -3  -3  -5   25.70    3.80
   3  -3   5   22.40    3.90
  -3  -3  -5   32.50    5.90
   3  -3   5   19.80    3.90
  -3   3  -6   40.10    6.00
  -3   3  -6   34.70    5.40
  -3   3  -6   38.00    5.60
   3   3   6   37.50    5.00
  -3   3  -6   30.00    6.30
  -3   3  -6   29.40    5.30
  -3   3  -6   36.10    8.80
  -3  -3  -6   35.00    5.20
  -3  -3  -6   32.50    6.00
  -3  -3  -6   36.80    5.30
  -3  -3  -6   33.10    5.20
  -3  -3  -6   48.70    7.90
   3  -3   6   36.20    4.60
   3  -3   6   46.50    5.70
   3  -3   6   33.60    5.20
  -3   3  -7   92.09   11.50
   3   3   7   91.99   10.70
  -3   3  -7   93.39   11.40
  -3   3  -7   55.39   12.10
  -3   3  -7   81.49   15.50
  -3   3  -7  122.29   12.90
  -3   3  -7   99.79   11.50
   3  -3   7   87.19   11.20
  -3  -3  -7  115.59   11.40
   3  -3   7   91.69   11.00
  -3  -3  -7   80.19   12.30
   3  -3   7   90.89   10.50
  -3  -3  -7   97.89   11.10
  -3  -3  -7   86.39   11.20
  -3   3  -8   41.10    6.50
  -3   3  -8   30.00    9.00
  -3   3  -8   31.30    5.60
  -3   3  -8   44.50    6.60
   3   3   8   33.40    5.40
  -3   3  -8   22.30    5.30
  -3   3  -8   21.40    6.00
  -3  -3  -8   36.80    5.50
   3  -3   8   30.40    4.80
  -3  -3  -8   34.40    5.40
  -3  -3  -8   37.20    5.50
  -3  -3  -8   53.29    9.00
  -3  -3  -8   35.50    6.50
  -3   3  -9    3.60    3.20
  -3   3  -9    8.50    3.50
  -3   3  -9    8.00    3.30
  -3   3  -9    2.80    2.60
  -3   3  -9    6.90    5.60
  -3   3  -9    6.90    2.80
  -3  -3  -9   -1.30    1.80
  -3  -3  -9    3.90    2.40
  -3  -3  -9    9.60    6.20
  -3  -3  -9   -1.60    2.50
   3  -3   9    2.70    1.60
  -3  -3  -9    7.30    3.00
  -3   3 -10   71.89   15.70
  -3   3 -10   45.50   10.40
  -3   3 -10   71.59   10.40
  -3   3 -10   65.99   10.60
  -3   3 -10   78.09   11.10
  -3   3 -10   64.19   10.10
  -3  -3 -10   87.89   10.20
  -3  -3 -10   65.89    9.80
  -3  -3 -10   78.99   13.30
   3  -3  10   67.79    8.70
  -3  -3 -10   61.29   10.70
  -3  -3 -10   72.49   10.20
  -3   3 -11   92.99   14.90
  -3   3 -11  113.99   15.50
  -3   3 -11  120.49   16.30
  -3   3 -11   98.49   16.60
  -3   3 -11   84.69   15.10
  -3   3 -11  110.99   20.80
  -3  -3 -11  148.19   15.20
   3  -3  11  104.99   13.30
  -3  -3 -11  102.59   14.80
  -3  -3 -11   97.69   14.50
  -3  -3 -11  112.69   16.40
  -3  -3 -11  173.78   20.50
  -3   3 -12   31.40    8.10
  -3   3 -12   46.90    9.00
  -3   3 -12   43.90    7.70
  -3   3 -12   37.00   11.60
  -3  -3 -12   56.79    8.00
  -3  -3 -12   63.09    8.80
   3  -3  12   28.00    5.30
  -3  -3 -12   37.50    8.20
  -3  -3 -12   45.10   12.80
  -3  -3 -12   33.90    7.20
  -3   3 -13   17.30    8.90
  -3   3 -13   14.40    5.70
  -3   3 -13   19.30    5.30
  -3  -3 -13   13.90    5.60
   3  -3  13   21.30    3.60
  -3  -3 -13   36.30    7.10
  -3  -3 -13   35.40   12.80
  -3   3 -14   -1.20    3.10
  -3   3 -14    1.80    6.00
  -3   3 -14    3.00    4.70
  -3  -3 -14  -10.90   10.50
  -3  -3 -14   -3.90    4.50
  -3  -3 -14   -2.20    4.10
  -3   3 -15    2.20    4.80
  -3   3 -15   -3.90    6.40
  -3   3 -15    4.30    3.90
  -3  -3 -15  -25.30   10.30
  -3  -3 -15   -1.70    4.20
  -3  -3 -15    2.20    4.70
   3   4 -15   25.40   11.30
   3   4 -15   16.30    6.60
   3   4 -15   18.90    6.20
   3  -4 -15   31.80   11.70
   3   4 -14   55.09   10.00
   3   4 -14   30.10    9.10
   3   4 -14   38.90   13.40
   3  -4 -14   54.09   13.40
   3  -4 -14   68.79    9.60
   3  -4 -14   39.40    9.60
   3  -4 -14   59.29    8.10
  -3  -4  14   51.19    7.80
   3   4 -13   11.50    5.20
   3   4 -13   23.20    6.20
   3   4 -13    4.30    6.60
   3  -4 -13   14.80    9.00
   3  -4 -13   -1.60    4.70
  -3  -4  13   16.60    3.60
   3  -4 -13    5.90    3.90
   3  -4 -13   17.20    5.70
   3  -4 -13   19.10    4.20
   3   4 -12   57.29   10.00
   3   4 -12   37.60   13.10
   3   4 -12   46.80   10.00
   3  -4 -12   70.99   13.10
   3  -4 -12   45.80    9.40
   3  -4 -12   71.59    8.10
   3  -4 -12   46.80    9.10
   3  -4 -12   48.10    8.60
  -3  -4  12   41.70    7.60
   3   4 -11    4.60    6.30
   3   4 -11   11.60    4.70
   3   4 -11    9.20    4.50
   3  -4 -11    7.30    3.70
  -3  -4  11   17.10    3.80
   3  -4 -11   20.10    3.80
   3  -4 -11   15.60    4.70
   3  -4 -11   13.10    4.70
   3  -4 -11   10.70    7.20
   3   4 -10   21.60    4.40
   3   4 -10   13.70    7.60
   3   4 -10   18.30    5.50
   3   4 -10   17.60    5.50
   3  -4 -10   24.50    4.00
   3  -4 -10   16.30    4.50
   3  -4 -10   29.60    5.80
   3  -4 -10   16.30    5.10
  -3  -4  10   15.80    4.00
   3  -4 -10   22.10    7.20
   3   4  -9   62.09    9.30
   3   4  -9   52.69   13.80
   3   4  -9   61.49   10.60
   3   4  -9   42.30   10.10
  -3   4   9   73.29    9.20
   3  -4  -9   63.19   10.60
   3  -4  -9   87.69    8.90
  -3  -4   9   57.99    9.40
   3  -4  -9   95.49   12.40
   3  -4  -9   68.89   10.10
   3  -4  -9   78.69   10.70
   3   4  -8   -2.50    1.30
   3   4  -8    1.10    2.60
   3   4  -8    0.20    1.70
   3   4  -8    3.00    2.50
   3   4  -8   -2.30    1.80
   3   4  -8   -0.10    3.50
  -3   4   8    0.80    1.60
  -3  -4   8   -1.20    1.10
   3  -4  -8    2.50    2.40
   3  -4  -8    1.30    4.20
  -3  -4   8   -1.00    1.70
   3  -4  -8   -1.50    2.10
   3  -4  -8   -0.50    1.80
   3  -4  -8   -0.40    1.20
   3   4  -7   11.20    4.20
   3   4  -7   15.30    4.60
   3   4  -7   25.10    4.30
   3   4  -7   14.80    3.30
   3   4  -7   18.20    4.10
   3  -4  -7   19.00    4.30
   3  -4  -7   25.60    3.40
  -3  -4   7   17.60    3.70
   3  -4  -7   25.10    4.60
   3  -4  -7   22.20    4.30
  -3  -4   7   27.00    4.70
  -3  -4   7   19.40    3.30
   3  -4  -7   34.00    6.20
   3   4  -6    1.50    1.00
   3   4  -6    1.60    2.30
   3   4  -6   -0.50    1.40
   3   4  -6    0.00    1.80
   3   4  -6   -0.30    1.50
  -3  -4   6   -0.90    0.80
   3  -4  -6   -0.10    1.30
   3  -4  -6   -0.10    0.80
   3  -4  -6    0.20    1.70
  -3  -4   6    0.70    1.60
   3  -4  -6    2.90    3.70
   3  -4  -6    1.20    2.50
  -3  -4   6   -1.20    1.70
   3   4  -5   88.39   11.00
   3   4  -5   88.79   11.00
  -3   4   5   80.09    9.60
   3   4  -5   81.29    9.90
   3   4  -5   78.99   10.50
   3  -4  -5   68.09   10.40
  -3  -4   5   77.09   10.00
  -3  -4   5   83.09    9.40
   3  -4  -5   74.39    9.90
   3  -4  -5   80.49    9.20
  -3  -4   5   87.99   10.00
   3   4  -4  149.59   16.10
   3   4  -4  125.79   16.00
   3   4  -4  154.78   15.90
  -3   4   4  142.89   15.50
  -3  -4   4  110.99   15.50
  -3  -4   4  133.99   15.90
  -3  -4   4  130.39   15.20
   3  -4  -4  133.79   15.80
   3  -4  -4  108.59   15.50
   3  -4  -4  152.38   15.00
   3   4  -3   -0.50    1.10
  -3   4   3    0.00    1.10
   3   4  -3   -0.40    1.40
   3   4  -3   -0.30    0.60
   3   4  -3    1.60    1.70
   3  -4  -3   -0.30    1.20
   3  -4  -3    0.30    1.10
  -3  -4   3   -2.10    1.20
   3  -4  -3   -0.70    0.60
  -3  -4   3    0.60    0.80
  -3  -4   3   -0.30    0.90
  -3   4   2    6.30    1.50
   3   4  -2    5.10    1.20
   3   4  -2    4.20    1.70
   3   4  -2    4.80    2.00
  -3  -4   2    6.40    2.00
  -3  -4   2    3.50    1.10
  -3  -4   2    6.90    1.80
   3  -4  -2    6.80    1.60
   3  -4  -2    5.50    1.30
   3   4  -1   41.00    5.90
   3   4  -1   45.70    6.50
  -3   4   1   40.20    5.50
   3   4  -1   43.20    5.30
   3  -4  -1   40.80    6.00
   3  -4  -1   40.40    5.40
  -3  -4   1   50.69    5.20
  -3  -4   1   40.10    6.00
  -3  -4   1   46.80    6.00
  -3   4   0   10.10    1.80
   3   4   0    8.20    2.10
   3   4   0    9.30    2.40
  -3  -4   0   10.80    2.00
  -3  -4   0    8.80    2.10
   3  -4   0    7.10    1.70
   3  -4   0    5.30    1.90
  -3  -4   0   10.10    1.50
  -3  -4   0    5.70    1.70
  -3   4  -1  147.09   16.10
   3   4   1  139.59   16.60
   3   4   1  139.19   16.50
   3  -4   1  152.08   16.30
  -3  -4  -1  138.29   15.90
   3  -4   1  149.49   16.50
  -3  -4  -1  147.39   16.50
  -3  -4  -1  145.79   16.70
  -3  -4  -1  131.49   16.30
   3   4   2  411.66   47.60
  -3   4  -2  402.06   47.10
  -3   4  -2  437.16   47.90
   3   4   2  426.96   47.40
   3   4   2  468.45   47.20
   3  -4   2  444.86   47.40
   3  -4   2  434.56   47.60
  -3  -4  -2  429.46   47.40
  -3  -4  -2  400.36   47.50
   3   4   3  574.34   58.09
  -3   4  -3  524.55   59.19
  -3   4  -3  559.04   58.39
   3   4   3  536.45   58.59
  -3  -4  -3  475.85   58.29
   3  -4   3  511.55   58.19
  -3  -4  -3  538.35   58.49
   3  -4   3  545.65   58.79
  -3  -4  -3  527.35   58.89
   3  -4   3  529.25   58.59
  -3   4  -4   13.70    3.70
   3   4   4   17.90    3.20
  -3   4  -4   15.70    2.90
  -3   4  -4   15.20    2.90
  -3  -4  -4   19.50    2.90
  -3  -4  -4   22.50    3.00
  -3  -4  -4   16.50    3.80
   3  -4   4   19.30    3.30
  -3  -4  -4   28.80    6.50
   3  -4   4   14.90    2.50
   3  -4   4   14.70    3.30
  -3   4  -5    1.70    1.60
  -3   4  -5    4.80    2.70
  -3   4  -5    2.30    3.20
  -3   4  -5    1.70    1.60
  -3   4  -5    1.30    1.20
   3   4   5    4.70    1.70
   3  -4   5    4.80    1.90
  -3  -4  -5    3.90    1.60
   3  -4   5    4.50    1.30
  -3  -4  -5    2.40    1.50
  -3  -4  -5   11.20    5.50
  -3  -4  -5   -0.70    2.00
   3  -4   5    1.50    1.40
  -3   4  -6    0.40    1.20
  -3   4  -6    3.30    2.00
   3   4   6    1.50    1.30
  -3   4  -6    2.90    2.30
  -3   4  -6    1.80    3.50
  -3   4  -6    1.50    2.30
  -3   4  -6    2.00    1.30
   3  -4   6    0.90    1.80
  -3  -4  -6    3.50    4.90
  -3  -4  -6   -0.40    1.30
  -3  -4  -6    2.10    1.50
   3  -4   6    1.70    1.60
   3  -4   6    1.80    1.10
  -3  -4  -6    1.30    2.10
  -3   4  -7   73.29   10.40
  -3   4  -7   87.29   10.60
  -3   4  -7   85.29    9.90
  -3   4  -7   48.60   10.60
  -3   4  -7   64.49   13.70
   3   4   7   67.59    9.20
  -3   4  -7   84.99   10.50
  -3  -4  -7   75.59    9.90
   3  -4   7   75.09    9.60
   3  -4   7   86.99   10.00
  -3  -4  -7   90.69    9.70
  -3  -4  -7   79.19   11.30
   3  -4   7   82.19    9.10
  -3   4  -8   84.89   14.70
  -3   4  -8  101.79   19.00
  -3   4  -8  120.59   13.60
  -3   4  -8  108.59   13.70
  -3   4  -8  109.99   13.60
  -3   4  -8  118.99   14.70
  -3  -4  -8  122.59   15.60
  -3  -4  -8  105.79   13.30
   3  -4   8  117.29   13.20
  -3   4  -9    9.80    3.10
  -3   4  -9    2.10    2.40
  -3   4  -9    3.40    2.60
  -3   4  -9    1.20    3.50
  -3   4  -9    2.20    2.70
  -3   4  -9    3.30    5.20
   3  -4   9    2.30    2.00
  -3  -4  -9    6.90    3.50
  -3  -4  -9   13.20    7.70
  -3  -4  -9    3.70    2.80
  -3  -4  -9   10.40    2.90
  -3   4 -10  181.58   28.50
  -3   4 -10  181.48   24.40
  -3   4 -10  151.68   25.00
  -3   4 -10  210.08   24.30
  -3   4 -10  226.98   24.70
  -3   4 -10  277.17   25.70
  -3  -4 -10  252.07   24.40
  -3  -4 -10  214.18   25.40
   3  -4  10  207.68   23.70
  -3   4 -11   78.19   17.90
  -3   4 -11   67.79   13.40
  -3   4 -11   92.69   12.80
  -3   4 -11   86.39   12.50
  -3   4 -11  101.59   13.60
  -3  -4 -11  119.29   18.20
   3  -4  11   76.09   11.10
  -3  -4 -11   95.19   12.10
  -3  -4 -11   97.99   14.00
  -3   4 -12   38.00    6.80
  -3   4 -12   21.40    6.80
  -3   4 -12   20.50    9.50
  -3  -4 -12   46.70    7.20
  -3  -4 -12   50.49   13.70
   3  -4  12   26.90    4.90
  -3  -4 -12   31.50    7.70
  -3   4 -13   13.80    4.40
  -3   4 -13   -0.70    4.10
  -3   4 -13   10.90    8.00
  -3  -4 -13   21.30    5.40
  -3  -4 -13    3.90    4.30
   3  -4  13   10.40    2.60
  -3  -4 -13   17.90   13.40
  -3   4 -14    1.60    3.90
  -3   4 -14    0.60    6.40
  -3   4 -14   -1.40    3.60
  -3  -4 -14  -16.00   11.70
  -3  -4 -14    7.10    4.20
   3  -4  14    1.50    2.00
  -3  -4 -14    0.40    4.10
   3   5 -15    0.70    3.80
   3   5 -15    2.10    4.30
   3   5 -15    7.20    8.70
   3  -5 -15   -9.60    8.80
   3  -5 -15   -1.60    3.80
   3   5 -14   -5.20    5.50
   3   5 -14   -1.30    3.50
   3   5 -14    1.80    4.20
   3  -5 -14  -11.80    8.20
   3  -5 -14    0.10    3.40
  -3  -5  14    3.90    2.70
   3   5 -13    0.20    3.80
   3   5 -13    2.90    3.90
   3   5 -13    1.10    6.20
   3  -5 -13   -1.60    3.10
   3  -5 -13    3.50    3.80
   3  -5 -13  -11.50    7.80
  -3  -5  13   -4.00    2.10
   3   5 -12   -3.80    4.40
   3   5 -12    1.80    3.40
   3   5 -12    0.30    3.30
   3  -5 -12   -2.40    4.50
   3  -5 -12    2.30    7.90
   3  -5 -12   -0.20    2.10
   3  -5 -12   -4.60    3.00
  -3  -5  12   -2.30    2.10
   3   5 -11   16.60    5.40
   3   5 -11    9.20    4.30
   3   5 -11   19.40    9.30
   3  -5 -11   14.60    3.20
  -3  -5  11    7.40    3.20
   3  -5 -11    9.50    4.10
   3  -5 -11   18.00    8.70
   3  -5 -11   10.40    5.00
   3   5 -10   34.70    6.70
   3   5 -10   28.10    6.70
   3   5 -10   21.60    6.60
   3   5 -10   20.40    9.30
   3  -5 -10   33.70    6.60
   3  -5 -10   38.00    5.10
  -3  -5  10   28.60    5.50
   3  -5 -10   54.29   10.90
   3  -5 -10   21.70    6.20
   3   5  -9    5.70    5.90
   3   5  -9    6.10    3.80
   3   5  -9    1.90    3.20
   3   5  -9    5.50    2.60
   3  -5  -9   16.10    7.30
   3  -5  -9    3.20    3.50
  -3  -5   9    0.30    2.30
   3  -5  -9   -0.90    2.20
   3  -5  -9    6.60    2.00
   3   5  -8   28.20    6.50
   3   5  -8   29.80    9.70
   3   5  -8   29.00    6.20
   3   5  -8   42.20    6.20
  -3   5   8   28.50    4.90
   3   5  -8   25.10    4.90
   3  -5  -8   32.20    4.60
   3  -5  -8   23.80    5.50
  -3  -5   8   36.00    5.80
   3  -5  -8   40.00    8.80
  -3  -5   8   49.60    6.70
   3  -5  -8   21.20    5.50
   3   5  -7   47.60    9.30
  -3   5   7   53.69    7.80
   3   5  -7   65.29    8.00
   3   5  -7   76.99    9.40
   3   5  -7   64.49    9.50
   3  -5  -7   62.59    7.30
  -3  -5   7   63.49    8.10
   3  -5  -7   53.79    9.00
  -3  -5   7   62.49    8.50
  -3  -5   7   64.19    9.10
   3  -5  -7   45.20    8.30
   3   5  -6    5.80    2.80
   3   5  -6   12.50    3.30
   3   5  -6    5.80    2.70
  -3   5   6    1.90    1.90
   3   5  -6   12.60    3.00
  -3  -5   6   11.80    3.00
   3  -5  -6    6.60    2.90
   3  -5  -6   22.00    6.20
   3  -5  -6    1.90    2.10
  -3  -5   6   11.70    3.30
  -3  -5   6    7.40    1.80
   3   5  -5  107.19   12.50
   3   5  -5  100.49   12.70
   3   5  -5  114.69   12.40
  -3   5   5   89.99   11.70
  -3  -5   5   92.39   12.20
  -3  -5   5  111.79   11.60
  -3  -5   5   90.89   12.30
   3  -5  -5   87.69   12.10
   3  -5  -5  103.39   12.40
   3   5  -4   66.09    9.20
  -3   5   4   69.39    8.50
   3   5  -4   75.89   10.00
   3   5  -4   67.69    8.00
   3   5  -4   87.79    9.90
  -3  -5   4   71.39    9.60
  -3  -5   4   67.79    8.20
   3  -5  -4   68.49    8.00
  -3  -5   4   63.19    9.00
   3  -5  -4   69.49    9.20
   3  -5  -4   63.99    9.00
   3   5  -3    5.10    2.10
   3   5  -3    4.70    2.30
  -3   5   3    7.20    1.80
   3   5  -3    4.10    1.20
   3   5  -3    7.90    2.60
  -3  -5   3    3.40    2.20
  -3  -5   3    3.10    1.80
  -3  -5   3    5.90    1.40
   3  -5  -3    7.50    1.50
   3  -5  -3    6.00    2.20
   3  -5  -3    2.70    1.70
   3   5  -2   46.70    6.70
   3   5  -2   36.40    6.60
  -3   5   2   40.60    5.90
   3   5  -2   56.19    7.70
   3   5  -2   49.99    5.60
  -3  -5   2   46.00    6.80
   3  -5  -2   47.90    5.90
  -3  -5   2   49.30    6.50
   3  -5  -2   45.40    5.70
  -3  -5   2   41.30    5.70
   3   5  -1    9.70    2.60
   3   5  -1    8.80    2.70
  -3   5   1   10.10    2.10
   3   5  -1    7.50    1.80
   3  -5  -1    9.50    2.00
  -3  -5   1   10.00    2.60
  -3  -5   1    6.40    1.60
   3  -5  -1    7.00    1.80
  -3  -5   1    9.90    2.40
   3  -5  -1   12.20    2.30
  -3  -5   1   11.40    2.10
  -3   5   0  605.44   65.49
   3   5   0  615.24   65.99
   3   5   0  587.94   66.19
   3  -5   0  587.84   65.79
  -3  -5   0  602.44   65.19
  -3  -5   0  596.94   65.49
  -3  -5   0  587.74   65.69
   3  -5   0  593.44   65.59
  -3  -5   0  581.24   65.89
   3   5   1  158.38   18.20
  -3   5  -1  153.28   17.40
   3   5   1  150.98   17.90
   3  -5   1  144.59   17.80
  -3  -5  -1  166.88   17.70
  -3  -5  -1  152.88   17.80
   3  -5   1  158.38   17.60
  -3  -5  -1  142.09   17.60
  -3   5  -2  286.07   32.50
   3   5   2  294.07   32.30
  -3   5  -2  292.07   31.70
   3   5   2  277.37   32.10
  -3  -5  -2  298.47   32.10
   3  -5   2  282.47   31.90
  -3  -5  -2  275.37   32.00
   3  -5   2  270.17   32.10
  -3   5  -3  556.94   61.39
   3   5   3  581.44   61.79
  -3   5  -3  499.25   62.19
  -3  -5  -3  602.44   61.69
  -3  -5  -3  556.34   61.89
   3  -5   3  582.44   61.79
   3  -5   3  523.25   61.89
  -3   5  -4    6.90    1.80
  -3   5  -4    1.70    2.40
   3   5   4    2.50    1.70
  -3  -5  -4    5.30    1.70
   3  -5   4    5.30    1.50
   3  -5   4    2.60    1.90
   3  -5   4    1.90    1.50
  -3  -5  -4    3.60    2.20
  -3   5  -5   68.39    9.40
  -3   5  -5   73.09    9.00
   3   5   5   68.59    9.00
  -3   5  -5   74.29   11.10
   3  -5   5   71.59    8.70
  -3  -5  -5   67.39    8.80
   3  -5   5   82.69    9.40
   3  -5   5   82.99    9.60
  -3  -5  -5   93.59   11.10
  -3   5  -6   14.10    3.30
  -3   5  -6   17.90    3.60
  -3   5  -6   19.40    4.90
  -3   5  -6   19.10    3.40
   3   5   6   15.50    3.10
  -3   5  -6   17.20    6.70
   3  -5   6   16.20    3.60
   3  -5   6    9.60    3.00
  -3  -5  -6   11.90    3.90
  -3  -5  -6   18.30    3.20
  -3  -5  -6   27.80    8.30
   3  -5   6   16.90    2.80
  -3   5  -7    4.50    2.10
  -3   5  -7    0.80    1.60
  -3   5  -7    6.10    5.30
   3   5   7    3.10    1.70
  -3   5  -7   -3.60    2.40
  -3   5  -7    5.90    2.80
  -3  -5  -7    3.60    7.00
  -3  -5  -7    2.50    1.90
   3  -5   7   -2.40    1.70
  -3  -5  -7    0.70    2.40
   3  -5   7    0.60    2.00
   3  -5   7    2.40    1.50
  -3   5  -8    2.00    3.00
  -3   5  -8    4.30    5.00
  -3   5  -8    8.80    3.20
  -3   5  -8    2.60    2.20
  -3   5  -8    6.40    3.20
  -3   5  -8   13.40    3.30
   3  -5   8    2.10    2.30
  -3  -5  -8    4.70    2.20
  -3  -5  -8    4.90    3.60
  -3  -5  -8    4.60    8.10
   3  -5   8    6.00    2.40
  -3   5  -9    7.80    3.40
  -3   5  -9    1.30    4.40
  -3   5  -9    4.20    2.70
  -3   5  -9    3.60    2.90
  -3   5  -9    6.10    3.60
  -3   5  -9    2.20    2.60
  -3  -5  -9    2.00    2.40
  -3  -5  -9   -2.60    8.30
   3  -5   9    3.30    2.30
  -3  -5  -9   -3.00    2.70
  -3   5 -10    7.50    3.20
  -3   5 -10    6.70    6.20
  -3   5 -10    9.80    4.00
  -3   5 -10    7.60    3.90
  -3   5 -10    8.00    3.50
   3  -5  10   -0.10    2.30
  -3  -5 -10    9.20    3.30
  -3  -5 -10    2.70    3.70
  -3  -5 -10   18.80   10.40
  -3   5 -11   -1.00    2.40
  -3   5 -11    0.40    4.10
  -3   5 -11    0.40    5.50
  -3   5 -11   -1.80    3.30
  -3  -5 -11   -4.80    3.60
  -3  -5 -11    6.20   10.80
  -3  -5 -11   -0.40    2.60
   3  -5  11    1.00    2.10
  -3   5 -12    0.30    3.80
  -3   5 -12   -1.70    6.10
  -3   5 -12    6.20    3.30
  -3  -5 -12    0.50   11.40
  -3  -5 -12    4.20    3.10
  -3  -5 -12    4.90    4.40
   3  -5  12    0.70    2.00
  -3   5 -13   13.20    8.40
  -3   5 -13    9.50    5.30
  -3  -5 -13    9.30    5.20
  -3  -5 -13    1.00   12.80
  -3  -5 -13   15.00    4.60
   3  -5  13    5.90    2.70
  -3   5 -14    8.30    5.50
  -3   5 -14    1.20    7.10
  -3  -5 -14   10.50    5.50
  -3  -5 -14    3.60   13.60
   3  -5  14    5.40    2.50
  -3  -5 -14   19.70    4.50
   3   6 -14   15.70    9.30
   3   6 -14   13.70    5.70
   3  -6 -14    6.60    9.80
   3  -6 -14   12.00    4.80
  -3  -6  14   10.90    3.60
   3   6 -13    1.30    4.30
   3   6 -13    6.90    7.40
  -3  -6  13    3.20    2.90
   3  -6 -13    1.20    3.60
   3  -6 -13    2.30    9.00
   3   6 -12   60.69   17.50
   3   6 -12   73.89   14.40
  -3   6  12   92.59   12.00
  -3  -6  12  125.69   12.70
   3  -6 -12  103.19   13.80
   3   6 -11   32.10    8.10
  -3   6  11   32.90    5.40
   3   6 -11   23.50    7.70
   3   6 -11   20.90    9.70
   3  -6 -11   23.60    5.90
  -3  -6  11   32.30    6.30
   3  -6 -11   52.69   11.80
   3   6 -10    9.20    7.30
   3   6 -10    6.90    4.60
   3   6 -10    9.80    4.90
  -3   6  10    2.00    2.50
   3  -6 -10    6.90    8.20
  -3  -6  10   13.90    3.60
   3  -6 -10    9.80    4.00
  -3   6   9    6.60    2.60
   3   6  -9    6.70    5.60
   3   6  -9    1.50    3.60
   3   6  -9    1.80    2.40
  -3  -6   9    5.60    4.00
   3  -6  -9   14.40    8.20
   3  -6  -9    4.00    3.50
  -3  -6   9    7.60    3.30
   3  -6  -9    8.70    3.60
   3   6  -8    5.40    4.00
  -3   6   8    3.70    2.40
   3   6  -8    5.80    2.50
   3   6  -8   18.50    4.00
   3  -6  -8   11.00    7.30
  -3  -6   8    3.50    2.70
  -3  -6   8    9.30    3.80
   3  -6  -8    5.30    2.70
   3  -6  -8    6.30    3.60
  -3   6   7  119.59   13.90
   3   6  -7  122.09   14.90
   3   6  -7  107.29   13.60
   3   6  -7  111.79   16.40
   3  -6  -7  105.99   15.30
  -3  -6   7  113.19   14.40
  -3  -6   7  122.49   14.90
   3  -6  -7  121.39   15.30
   3   6  -6   65.39    8.50
   3   6  -6   44.60    8.90
   3   6  -6   58.09    8.90
  -3   6   6   54.49    7.50
  -3  -6   6   56.09    8.10
   3  -6  -6   52.99    8.40
   3  -6  -6   48.00    8.00
  -3  -6   6   48.90    8.30
   3   6  -5   20.80    5.00
   3   6  -5   30.70    4.90
  -3   6   5   20.40    3.80
  -3  -6   5   25.30    4.90
  -3  -6   5   20.70    4.40
   3  -6  -5   21.40    4.60
   3  -6  -5   16.40    4.00
  -3  -6   5   15.00    3.50
   3   6  -4    7.90    1.60
   3   6  -4    6.70    3.20
   3   6  -4    7.20    2.80
  -3   6   4    2.90    1.80
   3  -6  -4    9.20    1.60
   3  -6  -4    5.10    2.40
  -3  -6   4    5.00    2.50
   3  -6  -4    2.30    2.30
  -3  -6   4    8.10    3.10
  -3  -6   4    4.60    1.70
   3   6  -3   23.00    4.20
   3   6  -3   20.60    4.60
   3   6  -3   13.80    2.60
  -3   6   3   20.10    3.40
   3  -6  -3   18.90    2.90
  -3  -6   3   17.90    4.10
  -3  -6   3   16.80    3.70
   3  -6  -3   15.90    3.40
  -3  -6   3   12.00    2.60
   3   6  -2  180.58   21.10
  -3   6   2  186.58   21.40
   3   6  -2  172.88   21.90
   3   6  -2  176.68   22.30
  -3  -6   2  192.98   21.10
   3  -6  -2  201.98   21.50
  -3  -6   2  204.98   22.20
   3  -6  -2  187.58   21.30
  -3  -6   2  182.18   21.70
   3   6  -1  299.27   33.50
  -3   6   1  296.57   32.90
   3   6  -1  280.67   32.70
   3   6  -1  307.37   33.90
  -3  -6   1  297.97   32.60
   3  -6  -1  292.57   32.80
  -3  -6   1  294.77   33.20
   3  -6  -1  306.27   33.00
  -3  -6   1  270.57   33.40
   3   6   0  513.65   57.39
  -3   6   0  516.85   56.79
   3   6   0  495.35   56.79
   3   6   0  511.15   57.69
  -3  -6   0  538.25   56.49
  -3  -6   0  510.85   57.09
   3  -6   0  522.05   56.89
  -3  -6   0  493.65   57.29
   3  -6   0  521.55   57.09
  -3  -6   0  512.15   56.79
   3   6   1   13.70    3.90
  -3   6  -1   20.80    3.10
   3   6   1   13.60    3.40
  -3  -6  -1   16.30    3.40
   3  -6   1   15.40    3.50
   3  -6   1   19.70    3.40
  -3  -6  -1   14.30    3.30
   3   6   2   23.90    4.90
   3   6   2   25.90    4.70
  -3   6  -2   33.10    5.80
  -3   6  -2   18.70    3.70
  -3  -6  -2   29.10    4.70
  -3  -6  -2   24.30    4.50
   3  -6   2   34.20    5.10
   3  -6   2   26.70    4.20
  -3   6  -3    1.20    1.30
   3   6   3    1.90    1.90
  -3   6  -3    1.60    2.50
  -3  -6  -3    0.10    1.80
   3  -6   3    4.70    2.50
   3  -6   3    2.40    1.60
  -3  -6  -3    3.30    1.80
  -3   6  -4    0.50    1.40
  -3   6  -4   -0.10    2.20
   3   6   4   -2.00    1.50
  -3  -6  -4    3.10    1.60
  -3  -6  -4    2.50    2.20
   3  -6   4    2.20    2.10
   3  -6   4    4.70    2.10
   3   6   5   49.60    6.70
  -3   6  -5   52.29    6.90
  -3   6  -5   34.40    7.50
  -3   6  -5   43.40    6.20
   3  -6   5   48.90    7.20
   3  -6   5   37.90    6.40
  -3  -6  -5   48.80    7.60
   3   6   6    6.30    2.30
  -3   6  -6    3.20    4.60
  -3   6  -6   -0.60    1.80
  -3   6  -6    6.30    3.50
  -3   6  -6    0.50    1.70
  -3  -6  -6    2.50    2.90
   3  -6   6    7.10    2.70
   3  -6   6    6.60    2.50
  -3   6  -7   -1.00    1.50
   3   6   7    0.30    1.70
  -3   6  -7   -3.00    3.60
  -3   6  -7    0.90    2.80
  -3   6  -7    1.20    2.10
  -3   6  -7    2.90    2.60
  -3  -6  -7   -1.20    2.60
   3  -6   7   -0.30    2.00
   3  -6   7    0.50    2.40
  -3   6  -8    8.80    6.10
  -3   6  -8    7.80    3.70
  -3   6  -8    7.30    3.20
  -3   6  -8    8.20    3.10
   3  -6   8    5.80    2.80
  -3  -6  -8   10.70    9.30
   3  -6   8    6.10    2.90
  -3  -6  -8   10.90    4.30
  -3  -6  -8    7.60    2.50
  -3   6  -9   15.00    5.40
  -3   6  -9    7.30    6.30
  -3   6  -9   17.70    4.30
  -3   6  -9   15.00    4.60
   3  -6   9    9.60    3.30
  -3  -6  -9   11.90    4.90
  -3  -6  -9   43.20   12.10
  -3  -6  -9   19.10    3.90
  -3   6 -10   25.70   10.50
  -3   6 -10   24.50    7.20
  -3   6 -10   33.90    6.80
  -3  -6 -10   48.70    6.60
  -3  -6 -10   75.89   15.70
   3  -6  10   24.40    5.50
  -3  -6 -10   32.60    7.50
  -3   6 -11    0.40    5.50
  -3   6 -11    2.50    3.70
  -3  -6 -11   -0.70    4.00
  -3  -6 -11    1.90    2.80
   3  -6  11   -0.30    2.10
  -3  -6 -11    4.80   12.00
  -3   6 -12   14.30    8.60
  -3   6 -12   17.40    6.90
  -3  -6 -12   27.10    7.40
   3  -6  12   32.00    5.30
  -3  -6 -12   39.10    6.30
  -3  -6 -12   79.59   18.90
  -3   6 -13   44.00   15.10
  -3  -6 -13  155.98   23.80
  -3  -6 -13   91.79   11.20
  -3  -6 -13   69.09   12.60
   3   7 -13    0.60    4.40
   3   7 -13    1.70    5.90
   3  -7 -13   -0.80    3.60
  -3  -7  13   -1.40    2.90
   3   7 -12   38.00    9.50
   3   7 -12   44.10   13.90
  -3   7  12   56.59    7.90
   3  -7 -12   50.39    9.20
  -3  -7  12   56.89    8.50
   3   7 -11  177.08   26.00
  -3   7  11  213.48   24.00
   3   7 -11  161.88   31.80
   3  -7 -11  229.28   25.20
  -3  -7  11  231.58   24.70
  -3   7  10   91.29   11.40
   3   7 -10   67.29   13.30
   3   7 -10   67.29   17.20
   3  -7 -10   93.59   12.50
  -3  -7  10   96.89   12.40
   3   7  -9    0.60    5.20
  -3   7   9    3.00    2.40
   3   7  -9    0.10    3.90
  -3  -7   9    1.90    3.20
  -3  -7   9    0.40    3.00
   3  -7  -9    2.00    3.10
   3   7  -8    7.00    4.60
   3   7  -8   11.60    3.30
  -3   7   8    7.70    2.70
   3  -7  -8   10.10    4.10
  -3  -7   8   15.50    4.10
  -3  -7   8    8.90    4.30
   3   7  -7    5.60    3.90
   3   7  -7   -0.20    1.70
  -3   7   7    1.30    2.20
   3   7  -7   -1.70    3.00
  -3  -7   7    2.70    2.80
  -3  -7   7    3.90    3.30
   3  -7  -7    5.70    3.20
  -3   7   6    8.80    2.70
   3   7  -6    4.60    3.00
   3   7  -6    4.10    3.20
   3   7  -6    2.50    3.60
   3  -7  -6    4.60    3.20
   3  -7  -6    2.80    2.50
  -3  -7   6   14.90    3.70
  -3  -7   6    2.70    3.30
   3   7  -5    1.70    2.50
  -3   7   5    3.30    2.20
   3   7  -5   -1.80    2.80
   3  -7  -5   11.20    3.60
   3  -7  -5    8.60    2.80
  -3  -7   5    5.80    2.80
  -3  -7   5    5.70    3.00
   3   7  -4    1.80    2.40
   3   7  -4    1.60    2.70
  -3   7   4   -1.00    1.40
   3   7  -4    0.30    1.20
  -3  -7   4   -0.30    2.40
  -3  -7   4    2.10    2.30
   3  -7  -4    2.50    2.50
   3  -7  -4    1.90    1.10
   3   7  -3    4.30    3.10
   3   7  -3    1.10    1.20
   3   7  -3    4.10    2.70
  -3   7   3   -1.30    1.60
  -3  -7   3   -0.20    1.80
   3  -7  -3   -1.00    1.10
  -3  -7   3    0.30    2.40
   3  -7  -3   -1.10    1.80
   3   7  -2   42.60    6.40
  -3   7   2   33.30    5.40
   3   7  -2   33.20    6.60
   3   7  -2   39.20    5.20
   3  -7  -2   44.00    5.90
  -3  -7   2   27.20    5.90
  -3  -7   2   33.70    5.80
   3  -7  -2   29.90    5.10
  -3   7   1   14.60    3.00
   3   7  -1   19.30    4.90
   3   7  -1   11.20    2.80
   3   7  -1   14.50    3.80
   3  -7  -1   14.90    3.10
  -3  -7   1   17.20    3.70
  -3  -7   1   12.50    3.70
  -3  -7   1   11.50    2.50
   3   7   0    3.00    1.70
  -3   7   0    5.30    1.90
   3   7   0    1.50    2.60
   3   7   0   -0.50    2.20
   3  -7   0    3.60    2.10
   3  -7   0    0.60    1.70
  -3  -7   0    4.90    2.60
   3  -7   0    3.40    2.10
  -3  -7   0    5.30    2.50
  -3  -7   0    3.50    1.80
   3   7   1    1.50    2.20
   3   7   1   -1.70    2.30
   3   7   1   -0.10    1.50
  -3   7  -1   -0.50    1.20
  -3  -7  -1    0.80    1.90
   3  -7   1    1.50    2.10
  -3  -7  -1   -0.90    1.50
   3  -7   1   -2.30    1.40
   3   7   2   20.80    4.20
   3   7   2   18.30    3.80
  -3   7  -2   16.90    3.10
   3   7   2   22.10    5.10
  -3   7  -2   23.60    5.20
   3  -7   2   13.60    3.30
  -3  -7  -2   15.30    3.60
  -3  -7  -2   17.20    3.80
   3  -7   2   21.00    4.40
  -3   7  -3   78.49   12.80
   3   7   3   98.29   12.20
  -3   7  -3   88.59   10.90
  -3  -7  -3   82.99   11.10
  -3  -7  -3   93.19   12.00
   3  -7   3   92.99   12.20
   3  -7   3  100.39   11.40
   3   7   4    0.50    1.90
  -3   7  -4    3.50    3.10
  -3   7  -4    1.90    1.70
  -3  -7  -4    2.50    1.60
   3  -7   4    0.10    1.90
   3  -7   4    3.50    2.70
  -3  -7  -4    6.30    2.70
   3   7   5   33.00    5.90
  -3   7  -5   25.80    6.70
  -3   7  -5   44.90    5.90
   3  -7   5   37.40    6.10
  -3  -7  -5   39.50    6.90
   3  -7   5   41.60    6.90
  -3   7  -6    1.90    5.20
  -3   7  -6    1.80    3.00
  -3   7  -6    2.20    1.90
   3   7   6    7.10    2.50
  -3   7  -6    0.00    2.10
   3  -7   6    0.20    2.20
   3  -7   6    0.20    2.80
  -3  -7  -6   -0.50    2.70
  -3   7  -7    3.40    3.40
  -3   7  -7   -2.60    1.80
  -3   7  -7    3.90    5.80
  -3   7  -7   -0.90    2.20
   3   7   7    0.30    1.70
  -3  -7  -7    1.40    3.10
   3  -7   7   -2.70    1.90
   3  -7   7    0.80    2.30
  -3   7  -8   16.20    6.00
  -3   7  -8   14.40    7.90
  -3   7  -8   17.00    4.60
  -3   7  -8   24.20    4.80
   3  -7   8   27.60    5.60
   3  -7   8   19.00    4.30
  -3  -7  -8   19.50    6.00
  -3   7  -9   51.29   10.90
  -3   7  -9   80.99   10.10
  -3   7  -9   60.29   15.10
   3  -7   9   65.29   10.00
   3  -7   9   62.19    9.40
  -3  -7  -9   64.59   10.90
  -3   7 -10    8.60    5.40
  -3   7 -10   16.70    8.50
   3  -7  10   19.30    4.10
  -3  -7 -10   17.20    5.60
  -3   7 -11   -0.90    5.70
  -3   7 -11   -0.50    3.40
  -3  -7 -11   -2.20    4.00
   3  -7  11    4.50    2.80
  -3   7 -12   -0.80    3.80
  -3  -7 -12    1.50    4.80
   3  -7  12    1.10    2.60
   3   8 -12   -1.10    6.30
  -3   8  12    2.60    2.90
   3   8 -12    0.80    4.70
   3  -8 -12    1.90    3.90
  -3  -8  12    2.30    3.20
   3   8 -11    7.30    5.60
   3   8 -11    0.20    6.00
  -3   8  11    9.80    3.50
   3  -8 -11   11.40    4.40
  -3  -8  11   10.90    4.00
   3   8 -10   44.20   13.90
  -3   8  10   50.89    8.10
   3   8 -10   57.29   11.10
  -3  -8  10   51.19    8.80
  -3  -8  10   62.09   10.40
   3  -8 -10   61.89    9.60
   3   8  -9    1.60    5.60
  -3   8   9   -1.70    2.00
   3   8  -9    1.70    4.00
  -3  -8   9   -2.10    2.80
   3  -8  -9    5.60    3.60
  -3  -8   9    2.60    3.40
   3   8  -8   -2.20    3.30
  -3   8   8   -0.50    2.20
   3  -8  -8   -1.90    2.50
  -3  -8   8    1.10    2.80
  -3  -8   8    1.00    3.20
  -3   8   7    0.10    2.10
   3   8  -7    1.30    2.40
   3   8  -7   -0.10    3.10
   3   8  -7   -3.70    3.00
  -3  -8   7    3.70    3.80
  -3  -8   7   -3.90    2.50
   3   8  -6   35.70    8.80
  -3   8   6   33.50    6.10
   3   8  -6   53.69    8.60
   3   8  -6   51.29    8.00
  -3  -8   6   43.70    8.00
  -3  -8   6   38.20    7.30
  -3   8   5   45.30    7.60
   3   8  -5   49.00   10.10
   3   8  -5   53.49    9.50
   3   8  -5   71.89    9.70
  -3  -8   5   68.39   10.00
  -3  -8   5   54.89    8.60
  -3   8   4   -0.60    2.00
   3   8  -4   -5.20    2.40
   3   8  -4    5.30    3.70
  -3  -8   4    2.40    2.70
  -3  -8   4   -1.20    2.50
  -3   8   3    5.20    2.50
   3   8  -3    7.80    3.40
   3   8  -3    6.30    2.10
   3   8  -3    1.70    3.60
  -3  -8   3   11.10    4.10
   3  -8  -3    7.30    3.30
   3  -8  -3    3.80    1.90
  -3  -8   3    8.20    3.20
   3   8  -2   72.29   11.60
   3   8  -2   74.99   10.90
   3   8  -2   77.39    9.70
  -3   8   2   71.39   10.00
  -3  -8   2   70.79   10.90
   3  -8  -2   78.69    9.60
   3  -8  -2   92.49   11.00
  -3  -8   2   65.09   10.40
   3   8  -1  500.45   56.39
   3   8  -1  482.95   57.79
   3   8  -1  499.95   57.29
  -3   8   1  478.05   56.49
   3  -8  -1  602.24   56.89
   3  -8  -1  504.25   56.69
  -3  -8   1  524.25   56.99
  -3  -8   1  465.35   57.19
   3   8   0   30.60    5.90
   3   8   0   36.50    5.20
  -3   8   0   27.60    4.90
   3   8   0   20.20    5.90
  -3  -8   0   28.00    5.70
   3  -8   0   41.40    5.70
   3  -8   0   28.20    5.20
   3   8   1    3.00    2.40
  -3   8  -1    0.60    1.80
   3   8   1   -3.10    2.60
   3   8   1    3.10    2.10
   3  -8   1    1.70    2.20
   3  -8   1   -2.00    2.40
   3  -8   1    3.20    2.10
  -3  -8  -1   -1.20    2.20
   3   8   2    9.40    3.50
   3   8   2    5.90    2.70
  -3   8  -2    8.00    4.00
  -3   8  -2    5.80    2.20
   3  -8   2    7.20    2.70
  -3  -8  -2    6.00    2.60
  -3  -8  -2    8.30    2.70
   3  -8   2    6.80    3.30
   3   8   3   17.60    4.10
   3   8   3   19.20    3.90
  -3   8  -3   11.00    3.00
  -3   8  -3    6.40    4.30
  -3  -8  -3   17.60    3.60
  -3  -8  -3   11.40    3.60
   3  -8   3   15.80    3.50
   3  -8   3   13.00    3.90
   3   8   4   26.10    4.90
   3   8   4   23.10    4.80
  -3   8  -4   19.30    5.60
  -3   8  -4   21.40    4.10
  -3  -8  -4   22.70    4.80
   3  -8   4   21.40    4.60
   3  -8   4   19.80    4.90
  -3   8  -5   21.90    6.40
   3   8   5   26.90    5.20
   3   8   5   38.80    5.90
  -3   8  -5   30.80    5.10
   3  -8   5   45.00    6.80
   3  -8   5   21.70    5.00
  -3  -8  -5   21.40    5.50
  -3   8  -6    2.40    2.20
  -3   8  -6   -5.50    1.90
   3   8   6    3.80    2.50
  -3   8  -6    0.00    4.70
  -3   8  -6    3.20    3.70
  -3  -8  -6    1.60    2.70
   3  -8   6    3.40    2.80
   3  -8   6    0.50    2.10
  -3   8  -7   -0.40    3.30
   3   8   7   -0.70    2.10
  -3   8  -7   -1.90    2.20
  -3   8  -7    2.80    5.50
   3  -8   7    3.10    2.50
  -3  -8  -7    1.20    3.30
   3  -8   7   -0.70    2.80
  -3   8  -8    8.50    4.90
  -3   8  -8    9.30    3.70
  -3   8  -8    5.00    6.30
   3  -8   8    4.40    2.90
   3  -8   8   10.00    3.80
  -3  -8  -8    9.80    4.60
  -3   8  -9    0.30    3.80
  -3   8  -9   -1.30    5.30
   3  -8   9    4.60    3.00
  -3  -8  -9    0.90    4.00
   3  -8   9    3.50    3.20
  -3   8 -10    0.20    4.10
  -3   8 -10    3.20    8.10
  -3  -8 -10    9.10    4.70
   3  -8  10    1.60    2.90
  -3   8 -11    1.30    4.30
   3  -8  11    0.20    2.70
  -3  -8 -11    3.40    4.60
  -3   9  11   13.90    4.00
   3   9 -11    9.00    8.50
   3   9 -11    9.20    6.40
  -3  -9  11   10.20    4.60
   3   9 -10   -1.20    6.90
  -3   9  10    1.30    2.60
   3   9 -10    8.60    5.70
  -3  -9  10   -1.10    3.20
  -3  -9  10    3.30    4.10
  -3   9   9    1.60    2.40
   3   9  -9   -3.50    4.20
   3   9  -9   -1.90    5.10
  -3  -9   9    4.30    3.90
  -3  -9   9    3.80    3.30
   3   9  -8    8.50    5.00
  -3   9   8    0.00    2.20
  -3  -9   8   -2.10    2.80
  -3  -9   8    0.60    3.60
  -3   9   7   18.20    4.20
   3   9  -7   10.30    5.60
  -3  -9   7   14.70    4.90
  -3  -9   7   17.40    4.90
   3   9  -6    3.00    3.70
   3   9  -6   -4.90    3.70
  -3   9   6    3.30    2.60
  -3  -9   6    1.10    2.90
  -3  -9   6    1.20    3.10
   3   9  -5   19.20    6.20
   3   9  -5   15.50    5.30
   3   9  -5   19.20    4.90
  -3   9   5    6.70    3.00
  -3  -9   5   14.20    4.50
  -3  -9   5   16.40    4.90
   3   9  -4   -4.20    2.60
  -3   9   4   -3.10    1.80
   3   9  -4   -1.80    3.30
  -3  -9   4   -6.70    2.20
  -3  -9   4   -0.50    2.70
   3   9  -3    2.10    3.40
  -3   9   3   -0.50    2.00
   3   9  -3   -0.70    2.90
  -3  -9   3   -0.80    2.90
   3  -9  -3   -1.00    1.60
  -3  -9   3   -1.80    2.50
   3   9  -2   58.49    8.20
  -3   9   2   72.79    8.90
   3   9  -2   64.19   10.60
   3   9  -2   58.09    9.60
   3  -9  -2   59.99    8.30
  -3  -9   2   50.19    9.30
  -3  -9   2   47.50   11.30
   3   9  -1   39.60    7.20
  -3   9   1   34.70    6.10
   3   9  -1   48.90    8.90
   3   9  -1   40.70    6.20
   3  -9  -1   36.30    6.30
   3  -9  -1   34.10    7.60
  -3  -9   1   51.99    7.70
   3   9   0   91.59   12.30
   3   9   0   93.49   13.10
   3   9   0   85.59   11.00
  -3   9   0   79.09   10.90
   3  -9   0   65.49   10.90
  -3  -9   0   80.19   11.70
   3  -9   0   92.29   11.60
  -3   9  -1    0.80    3.30
   3   9   1   -4.50    3.10
   3   9   1   -5.50    2.10
  -3   9  -1    1.40    2.10
   3   9   1    1.20    2.20
  -3  -9  -1   -1.10    2.30
   3  -9   1   -1.00    2.30
   3  -9   1    3.70    2.80
  -3   9  -2    7.10    2.60
  -3   9  -2    4.80    4.00
   3   9   2    3.30    2.80
   3   9   2    5.70    3.30
  -3  -9  -2    4.70    2.70
   3  -9   2   14.00    3.80
   3  -9   2    6.90    3.00
   3  -9   2    4.10    3.50
   3   9   3   11.00    4.10
  -3   9  -3   12.30    3.30
  -3   9  -3   19.50    5.70
   3   9   3   18.60    4.10
   3  -9   3   16.30    4.40
  -3  -9  -3   12.10    3.70
   3  -9   3   12.40    3.80
  -3  -9  -3   18.50    4.10
   3   9   4  174.88   22.60
  -3   9  -4  159.78   23.90
   3   9   4  202.38   22.70
  -3   9  -4  193.58   22.20
  -3  -9  -4  196.38   22.60
   3  -9   4  193.38   23.00
   3  -9   4  210.98   22.70
   3   9   5   37.10    6.40
   3   9   5   29.80    5.90
  -3   9  -5   26.90    7.60
  -3   9  -5   41.40    6.10
   3  -9   5   30.60    6.60
  -3  -9  -5   44.00    7.00
   3  -9   5   30.70    6.00
  -3   9  -6    4.90    4.00
  -3   9  -6    5.80    3.20
   3   9   6    1.50    2.50
   3   9   6    3.10    2.90
  -3   9  -6    4.10    6.20
  -3  -9  -6    6.40    3.70
   3  -9   6    4.30    3.20
   3  -9   6    5.10    2.70
  -3   9  -7    3.70    3.00
  -3   9  -7   -0.20    3.70
   3   9   7   -1.60    2.10
  -3   9  -7   -0.80    5.80
   3   9   7    0.10    3.10
   3  -9   7   -5.50    2.50
   3  -9   7   -2.50    2.00
  -3  -9  -7    2.90    3.40
  -3   9  -8    1.00    4.20
   3   9   8    1.80    3.30
   3  -9   8   -3.40    2.50
   3  -9   8   -0.80    2.10
  -3  -9  -8    0.00    3.40
  -3   9  -9   -1.60    4.20
   3   9   9    1.80    3.20
   3  -9   9    4.30    2.90
  -3  -9  -9    4.10    4.10
   3  -9   9   -2.90    3.10
   3  10  -9    2.90    5.20
   3  10  -9    1.50    8.00
  -3  10   9    3.40    2.90
  -3 -10   9    0.40    3.60
  -3 -10   9   -5.00    4.20
   3  10  -8   -1.90    6.60
   3  10  -8    0.60    5.00
  -3  10   8    4.10    2.80
  -3 -10   8   -0.80    3.80
  -3 -10   8   -1.00    3.20
   3  10  -7    4.60    5.20
  -3  10   7    6.20    2.80
  -3 -10   7   -0.50    3.20
  -3 -10   7   15.30    4.80
   3  10  -6   -2.50    3.60
  -3  10   6    5.10    2.70
  -3 -10   6    2.30    3.60
  -3 -10   6    6.50    3.60
   3  10  -5   26.00    8.00
   3  10  -5   34.00    7.30
  -3  10   5   17.60    4.60
  -3 -10   5   24.00    6.30
  -3 -10   5   28.50    6.00
   3  10  -4   -2.20    4.00
  -3  10   4   -2.50    2.30
   3  10  -4    0.10    3.70
   3  10  -4   -6.60    3.50
  -3 -10   4   -1.00    3.30
  -3 -10   4   -0.60    3.30
   3  10  -3    0.70    3.70
  -3  10   3    4.20    2.80
   3  10  -3   -0.40    3.40
  -3 -10   3    1.20    3.50
  -3  10   2    1.80    2.50
   3  10  -2    3.40    2.40
   3  10  -2    6.80    4.20
   3  10  -2   -5.00    2.80
   3 -10  -2    3.10    2.50
  -3 -10   2    0.90    3.20
   3  10  -1   15.80    4.80
   3  10  -1   13.30    5.50
   3  10  -1   14.60    3.60
  -3  10   1    7.70    3.20
   3 -10  -1   14.30    3.70
  -3 -10   1   10.30    4.10
   3  10   0    5.80    2.70
  -3  10   0    4.30    2.70
   3  10   0   13.30    5.10
   3  10   0   -0.50    3.10
  -3 -10   0    7.90    3.60
   3 -10   0    3.60    2.60
  -3  10  -1   -2.10    2.00
   3  10   1    1.70    2.90
   3  10   1   -2.80    2.00
  -3 -10  -1   -1.00    2.60
   3 -10   1   -0.30    2.30
  -3  10  -2    2.90    2.40
   3  10   2    3.80    2.90
   3  10   2   -2.20    2.60
  -3  10  -2   -1.30    3.60
  -3 -10  -2   -3.20    2.50
   3 -10   2    1.10    2.80
   3  10   3   37.50    7.20
   3  10   3   40.00    7.10
  -3  10  -3   39.50    6.60
  -3  10  -3   31.90    8.10
   3 -10   3   54.09    8.20
   3 -10   3   50.39    7.60
  -3  10  -4   43.30    7.40
  -3  10  -4   48.80    9.80
   3  10   4   49.30    8.00
   3  10   4   55.29    8.20
   3 -10   4   69.19    9.10
   3 -10   4   42.70    7.50
   3 -10   4   46.50    8.30
  -3  10  -5    5.40    2.90
  -3  10  -5    1.90    3.80
   3  10   5    4.10    3.20
   3  10   5    1.20    2.80
   3 -10   5    2.60    2.70
   3 -10   5    6.40    3.30
   3  10   6   -1.00    2.80
   3  10   6    0.80    2.60
  -3  10  -6   -0.90    3.00
  -3  10  -6    1.00    4.30
   3 -10   6   -0.60    2.40
  -3 -10  -6    3.40    3.40
   3 -10   6    0.10    3.10
   3  10   7    0.60    3.00
  -3  10  -7    1.20    4.50
  -3 -10  -7    0.50    3.70
   3 -10   7    5.50    4.10
   3 -10   7    2.10    2.50
  -3  10  -8    2.80    4.60
   3  10   8    0.60    3.20
  -3 -10  -8    2.00    3.90
   3 -10   8    0.70    2.80
   3 -10   8    3.70    3.90
  -3  11   6   24.40    5.00
   3  11  -6    9.80    6.30
  -3 -11   6   25.40    6.30
  -3 -11   6   24.00    5.90
   3  11  -5    8.40    6.10
  -3  11   5    0.70    3.00
  -3 -11   5    7.80    4.70
   3  11  -4    8.20    5.50
  -3  11   4    0.20    2.90
  -3 -11   4   -4.00    3.90
  -3  11   3    0.70    2.70
   3  11  -3    7.70    4.60
  -3 -11   3   -0.50    3.10
   3  11  -2   -1.00    4.40
  -3  11   2    3.80    2.70
   3  11  -2    6.10    4.00
  -3 -11   2   -2.60    2.90
   3  11  -1   31.40    8.60
  -3  11   1   38.70    6.70
   3  11  -1   44.70    8.20
  -3 -11   1   32.20    7.10
   3 -11  -1   49.10    6.90
  -3  11   0   10.00    3.50
   3  11   0   15.50    5.20
   3  11   0   16.70    6.10
   3  11   0   20.70    4.30
   3 -11   0   13.20    3.70
  -3 -11   0   13.50    4.30
   3  11   1    4.50    3.00
  -3  11  -1    0.70    2.40
   3  11   1    2.30    3.50
  -3 -11  -1   -1.80    2.90
   3 -11   1    2.70    3.00
   3  11   2    1.40    2.70
  -3  11  -2   -0.60    2.40
   3  11   2    2.20    3.40
   3 -11   2    1.20    2.90
   3  11   3    0.90    3.20
   3  11   3    4.30    3.00
  -3  11  -3    1.70    2.70
   3 -11   3    0.70    3.10
  -3  11  -4    8.60    3.50
   3  11   4    9.30    3.80
   3  11   4    1.60    3.30
   3 -11   4    3.20    3.70
  -3  11  -5    7.70    3.90
   3  11   5    9.30    3.90
   3  11   5    8.60    4.00
   3 -11   5    6.60    3.80
   4   0 -16   -6.90    5.30
   4   0 -16    5.10    5.60
   4   0 -16  -10.10    3.40
   4   0 -16   -2.90    6.00
   4   0 -15    2.10    6.00
   4   0 -15    5.20    4.20
   4   0 -15   -5.60    4.20
   4   0 -15   -4.00    4.20
   4   0 -14   68.09   12.20
   4   0 -14   75.09   12.30
   4   0 -14   65.09   15.10
   4   0 -14   61.99   10.50
   4   0 -13   -2.90    2.30
   4   0 -13    0.30    4.50
   4   0 -13   -4.90    3.40
   4   0 -13   -2.80    3.50
   4   0 -12    7.70    4.60
   4   0 -12    2.00    2.30
   4   0 -12   -1.80    3.30
   4   0 -12    3.40    4.80
   4   0 -11    0.10    1.90
   4   0 -11    2.20    4.30
   4   0 -11   -6.20    2.40
   4   0 -11    0.50    2.00
   4   0 -11   -3.20    2.50
   4   0 -10   47.50   10.90
   4   0 -10   42.40    8.10
   4   0 -10   40.90    7.30
   4   0 -10   55.59    6.70
  -4   0  10   46.20    6.20
   4   0 -10   49.90    8.30
   4   0  -9    4.80    2.80
   4   0  -9   -0.50    2.80
  -4   0   9   -0.60    1.00
   4   0  -9    1.10    2.30
  -4   0   9    1.70    1.20
   4   0  -9   -0.20    1.40
   4   0  -9    2.30    1.40
  -4   0   8   23.50    3.00
   4   0  -8   22.50    4.60
   4   0  -8   20.90    4.50
   4   0  -8   18.80    3.90
   4   0  -8   15.10    3.30
   4   0  -8   15.10    5.40
  -4   0   8   19.40    3.00
   4   0  -8   15.70    3.00
   4   0  -7   -0.50    1.10
   4   0  -7   -2.20    1.60
   4   0  -7    1.30    1.80
  -4   0   7   -0.20    0.80
   4   0  -7    0.30    0.80
   4   0  -7    0.60    1.10
   4   0  -7    0.10    2.10
  -4   0   7   -0.60    0.70
   4   0  -6   18.40    3.80
   4   0  -6   17.00    2.40
   4   0  -6   15.40    4.30
   4   0  -6   11.60    2.80
   4   0  -6   19.30    4.00
  -4   0   6   18.50    2.60
  -4   0   5   -0.10    0.80
   4   0  -5   -0.40    1.40
   4   0  -5    0.00    1.60
   4   0  -5   -0.60    1.30
   4   0  -5    0.30    0.50
   4   0  -4   63.89    7.70
  -4   0   4   54.79    6.40
   4   0  -4   57.19    6.20
   4   0  -4   45.70    7.10
  -4   0   3   -0.90    0.60
  -4   0   2   66.29    7.50
  -4   0   1   -0.30    0.30
  -4   0   1   -0.20    0.50
  -4   0   0 1755.52  179.88
  -4   0   0 1546.65  179.88
  -4   0  -1    0.70    0.40
  -4   0  -1   -0.30    0.60
  -4   0  -2   72.39    8.80
  -4   0  -2   67.39    8.70
  -4   0  -2   71.99    8.70
   4   0   2   83.29    8.50
  -4   0  -3   -0.20    0.80
   4   0   3   -0.10    0.60
  -4   0  -3    0.70    1.00
  -4   0  -3    0.90    0.90
  -4   0  -3   -0.70    0.90
  -4   0  -3   -0.20    0.80
  -4   0  -4   38.10    5.80
  -4   0  -4   47.50    5.70
  -4   0  -4   53.89    6.80
  -4   0  -4   42.10    6.50
   4   0   4   54.59    5.50
  -4   0  -4   46.40    6.30
  -4   0  -5   -1.40    1.20
   4   0   5    1.00    0.80
  -4   0  -5    0.10    2.00
  -4   0  -5   -1.80    1.20
  -4   0  -5   -0.60    1.40
  -4   0  -5    2.60    1.60
  -4   0  -5   -2.10    1.20
  -4   0  -6 1451.55  169.58
   4   0   6 1657.33  167.68
  -4   0  -6 1654.93  168.18
  -4   0  -6 1519.75  168.58
  -4   0  -6 1342.17  168.28
  -4   0  -6 1537.35  168.28
  -4   0  -6 1599.04  168.48
  -4   0  -7   -3.90    1.30
  -4   0  -7   -1.10    1.80
  -4   0  -7   -1.90    1.70
  -4   0  -7   -0.90    2.50
  -4   0  -7    0.70    1.90
  -4   0  -7    0.60    1.70
   4   0   7   -0.50    0.80
  -4   0  -8    0.60    2.00
  -4   0  -8    1.10    3.40
  -4   0  -8   -1.40    2.20
  -4   0  -8    3.30    2.20
   4   0   8    9.70    1.70
  -4   0  -8    6.00    3.00
   4   0   9    0.70    1.40
  -4   0  -9    2.20    2.20
  -4   0  -9    4.30    2.90
  -4   0  -9   -0.30    3.60
  -4   0  -9    0.70    2.30
  -4   0  -9   -1.40    2.30
  -4   0 -10   88.79   13.90
  -4   0 -10   93.89   16.90
   4   0  10  100.79   11.60
  -4   0 -10  121.29   14.50
  -4   0 -10   99.99   13.40
  -4   0 -10   93.49   14.10
  -4   0 -11   -1.50    3.30
  -4   0 -11   -1.60    3.50
  -4   0 -11   -0.10    2.70
  -4   0 -11   -1.00    3.20
  -4   0 -11   -2.30    4.10
  -4   0 -12   -0.60    2.80
  -4   0 -12    4.90    4.40
  -4   0 -12    2.90    3.80
  -4   0 -12    2.80    5.60
  -4   0 -12    7.40    4.40
  -4   0 -13    0.70    3.30
  -4   0 -13    2.80    6.80
  -4   0 -13   -0.50    4.20
  -4   0 -13    6.20    4.30
  -4   0 -14   14.80    6.60
  -4   0 -14    0.70    4.20
  -4   0 -14   -6.00    6.80
  -4   0 -14    2.30    4.00
  -4   0 -15   -2.80    5.00
  -4   0 -15    2.70    5.70
  -4   0 -15  -15.10    7.10
   4   1 -16    0.00    5.20
   4   1 -16    0.30    3.90
   4   1 -16    0.60    6.50
   4   1 -16    8.10    6.50
   4  -1 -16    3.10    6.30
   4  -1 -16   12.10    6.30
   4  -1 -16    4.90    7.30
   4  -1 -16   -5.30    3.80
   4   1 -15   27.10   10.00
   4   1 -15   21.10    6.10
   4   1 -15   50.99    9.60
   4   1 -15   25.90    7.70
   4  -1 -15   18.10    6.10
   4  -1 -15   27.60    7.90
   4  -1 -15   45.20   11.60
   4  -1 -15   50.69    9.80
   4   1 -14    5.50    4.80
   4   1 -14    2.10    2.90
   4   1 -14    9.70    5.50
   4   1 -14    6.80    6.10
   4  -1 -14    9.10    5.60
   4  -1 -14    5.50    4.10
   4  -1 -14    4.90    5.40
   4  -1 -14   10.00    6.80
   4   1 -13   -3.30    3.40
   4   1 -13    1.50    4.30
   4   1 -13    2.10    5.20
   4   1 -13   -2.90    2.20
   4  -1 -13   -0.40    2.50
   4  -1 -13    0.40    4.60
   4  -1 -13   -0.20    4.10
   4  -1 -13    5.70    4.30
   4   1 -12    1.00    4.90
   4   1 -12    8.90    4.50
   4   1 -12    3.00    4.40
   4   1 -12    3.50    3.00
   4  -1 -12    9.50    4.30
   4  -1 -12    4.50    4.90
   4  -1 -12    1.90    2.80
   4  -1 -12    7.90    4.70
   4   1 -11   17.20    4.70
   4   1 -11   24.00    6.00
   4   1 -11   13.50    4.60
   4   1 -11   17.10    7.10
   4  -1 -11   14.20    5.90
   4  -1 -11   12.10    4.40
   4  -1 -11   24.40    6.00
   4  -1 -11   18.70    3.50
   4  -1 -11   15.70    4.10
   4   1 -10  253.67   33.70
   4   1 -10  313.07   34.20
   4   1 -10  301.77   34.40
   4   1 -10  249.58   32.70
   4   1 -10  283.07   37.00
  -4   1  10  272.97   32.50
   4  -1 -10  337.57   33.30
  -4  -1  10  325.17   32.70
   4  -1 -10  357.66   34.60
   4  -1 -10  292.07   34.10
   4  -1 -10  320.97   32.80
  -4  -1  10  294.47   32.50
   4  -1 -10  255.07   33.10
   4  -1 -10  286.77   35.90
  -4   1   9    6.00    1.60
   4   1  -9    2.90    3.30
   4   1  -9    3.70    2.40
   4   1  -9    3.50    3.00
   4   1  -9    5.20    1.80
   4   1  -9    7.10    3.20
   4  -1  -9    5.30    1.80
   4  -1  -9    3.50    2.70
   4  -1  -9    4.60    2.20
   4  -1  -9    5.60    3.90
   4  -1  -9    7.20    3.20
  -4  -1   9    7.00    1.90
   4  -1  -9    4.50    2.20
  -4  -1   9    4.10    1.50
  -4   1   8    8.90    1.90
   4   1  -8    6.80    3.10
   4   1  -8    7.20    2.80
   4   1  -8    5.10    3.10
   4   1  -8    9.80    2.00
   4   1  -8   13.20    5.10
   4  -1  -8   12.10    2.60
   4  -1  -8    9.30    3.80
  -4  -1   8   10.70    2.00
   4  -1  -8    8.80    1.90
  -4  -1   8    9.50    2.10
   4  -1  -8    7.90    3.20
   4  -1  -8    8.60    3.00
   4  -1  -8    6.90    2.20
   4   1  -7   -2.60    2.00
   4   1  -7    2.10    1.80
  -4   1   7    1.80    1.10
   4   1  -7    2.40    1.10
   4   1  -7    0.70    2.50
   4   1  -7    5.80    2.30
   4   1  -7    3.20    1.10
   4  -1  -7    0.20    1.60
   4  -1  -7    0.70    0.90
   4  -1  -7    3.60    2.40
   4  -1  -7    1.80    1.40
  -4  -1   7    3.60    1.20
   4  -1  -7    2.20    2.40
   4  -1  -7    0.90    1.10
  -4  -1   7    2.80    1.20
   4   1  -6    0.20    1.70
   4   1  -6    0.10    0.70
   4   1  -6   -0.20    1.00
  -4   1   6    1.10    0.80
   4   1  -6    1.70    1.40
   4   1  -6   -1.40    1.60
   4   1  -6    1.30    2.40
   4  -1  -6    0.00    0.80
   4  -1  -6    3.20    1.90
   4  -1  -6    1.10    0.70
   4  -1  -6    1.60    1.90
   4  -1  -6    0.20    1.00
   4  -1  -6    2.90    2.00
  -4  -1   6    1.10    0.90
  -4  -1   6    2.70    1.00
   4   1  -5  155.08   17.00
  -4   1   5  146.89   17.20
   4   1  -5  158.08   19.30
   4   1  -5  163.08   18.00
   4   1  -5  172.38   17.40
   4   1  -5  136.39   17.70
   4   1  -5  147.89   17.70
  -4  -1   5  151.68   17.20
   4  -1  -5  165.88   17.00
  -4  -1   5  166.18   17.20
   4  -1  -5  165.78   17.90
   4  -1  -5  150.28   17.80
   4  -1  -5  122.09   18.10
   4   1  -4 2079.69  208.28
  -4   1   4 1823.02  207.58
   4   1  -4 1795.72  207.98
   4   1  -4 1913.01  207.88
   4   1  -4 1898.41  207.38
  -4  -1   4 1984.60  207.68
   4  -1  -4 1869.21  208.08
  -4  -1   4 1885.41  207.58
   4  -1  -4 1906.91  208.08
   4   1  -3  200.88   23.40
   4   1  -3  221.58   23.00
   4   1  -3  200.88   22.60
  -4  -1   3  209.58   22.90
   4  -1  -3  206.08   23.30
   4   1  -2   38.50    4.40
  -4  -1   2   35.90    4.40
   4   1  -1   87.69    9.80
  -4  -1   1   88.29    9.80
   4   1   0  437.76   46.10
  -4  -1   0  400.26   46.10
  -4  -1   0  427.36   46.10
  -4   1  -1  838.42   90.99
  -4   1  -1  859.81   91.19
   4   1   1  862.61   90.89
  -4  -1  -1  736.83   91.09
  -4  -1  -1  869.01   90.89
  -4   1  -2   18.80    2.70
  -4   1  -2   14.00    1.80
  -4   1  -2   16.20    2.50
   4   1   2   16.90    2.30
   4  -1   2   15.80    2.20
  -4  -1  -2   11.40    2.50
  -4  -1  -2   13.30    2.50
  -4  -1  -2   18.10    2.50
  -4   1  -3    4.50    1.50
  -4   1  -3    3.50    1.40
  -4   1  -3    3.70    0.70
  -4   1  -3    1.30    1.20
  -4   1  -3    2.30    1.20
  -4   1  -3    3.90    1.20
   4   1   3    4.60    1.00
  -4  -1  -3    1.50    1.20
  -4  -1  -3    2.90    1.20
  -4  -1  -3    4.10    1.40
   4  -1   3    3.50    1.00
  -4  -1  -3    5.70    1.70
   4   1   4   96.29   10.20
  -4   1  -4   79.19   11.70
  -4   1  -4   87.09   10.40
  -4   1  -4   75.09   10.70
  -4   1  -4   88.89   10.80
  -4   1  -4   98.69   10.00
  -4   1  -4   86.69   10.60
  -4   1  -4   82.19   10.60
  -4  -1  -4   84.19   10.60
  -4  -1  -4   79.69   10.50
   4  -1   4   93.29   10.30
  -4  -1  -4  100.09   10.50
  -4  -1  -4   91.49   11.10
  -4  -1  -4   87.39   10.90
   4  -1   4  103.89   10.80
   4   1   5  804.92   82.99
  -4   1  -5  821.52   83.39
  -4   1  -5  733.03   83.59
  -4   1  -5  787.42   83.69
  -4   1  -5  747.03   83.59
  -4   1  -5  725.73   84.99
  -4   1  -5  619.34   83.59
  -4   1  -5  846.52   82.79
   4  -1   5  785.82   82.69
  -4  -1  -5  730.73   83.29
  -4  -1  -5  732.03   83.79
   4  -1   5  769.32   83.09
  -4  -1  -5  741.33   83.49
  -4  -1  -5  667.43   83.29
  -4  -1  -5  780.02   84.19
   4  -1   5  815.52   83.29
  -4   1  -6  145.79   18.00
   4   1   6  165.08   17.10
  -4   1  -6  143.49   18.20
  -4   1  -6  165.68   18.00
  -4   1  -6  146.79   17.60
  -4   1  -6  155.88   18.10
  -4   1  -6  148.59   19.80
  -4  -1  -6  142.79   17.70
  -4  -1  -6  162.18   18.90
   4  -1   6  148.29   17.20
  -4  -1  -6  149.88   17.80
  -4  -1  -6  151.98   17.60
  -4  -1  -6  145.29   18.10
  -4   1  -7    6.30    2.50
  -4   1  -7    0.60    1.90
  -4   1  -7    8.10    2.50
  -4   1  -7    0.20    2.90
   4   1   7    8.90    1.50
  -4   1  -7    1.50    1.90
  -4   1  -7    7.70    2.70
  -4  -1  -7    0.90    2.30
   4  -1   7    2.90    1.30
  -4  -1  -7    3.20    1.90
  -4  -1  -7    6.60    2.90
  -4  -1  -7    3.70    2.20
  -4  -1  -7    2.20    3.20
  -4   1  -8   30.40    8.40
  -4   1  -8   30.60    5.70
  -4   1  -8   40.50    6.60
  -4   1  -8   25.20    6.10
  -4   1  -8   29.90    5.90
   4   1   8   34.00    4.50
  -4   1  -8   37.20    6.00
   4  -1   8   32.40    4.50
  -4  -1  -8   35.00    6.20
  -4  -1  -8   26.20    5.90
  -4  -1  -8   31.50    5.60
  -4  -1  -8   34.00    7.90
  -4  -1  -8   44.00    6.20
   4   1   9   -0.70    1.00
  -4   1  -9    1.10    4.10
  -4   1  -9   -2.80    2.40
  -4   1  -9   -1.00    2.30
  -4   1  -9    4.80    3.30
  -4   1  -9    2.50    2.30
  -4   1  -9   -4.60    1.90
  -4  -1  -9    6.40    3.60
  -4  -1  -9   -0.90    2.00
  -4  -1  -9    1.20    2.70
  -4  -1  -9    3.50    4.60
  -4  -1  -9   -1.30    1.90
   4  -1   9    0.90    1.20
  -4   1 -10   86.49   11.60
  -4   1 -10   67.19   10.60
  -4   1 -10   81.49   15.10
  -4   1 -10   81.19   11.90
  -4   1 -10   66.39   11.60
  -4  -1 -10   63.59   10.80
   4  -1  10   80.49    9.00
  -4  -1 -10   73.99   10.50
  -4  -1 -10   95.39   11.60
  -4  -1 -10   59.29   12.90
  -4  -1 -10   78.09   11.70
  -4   1 -11   21.10    6.30
  -4   1 -11   34.10    6.80
  -4   1 -11   23.70    8.50
  -4   1 -11   23.50    6.60
  -4   1 -11   28.60    5.90
  -4  -1 -11   37.30    9.60
   4  -1  11   26.70    4.20
  -4  -1 -11   25.50    5.90
  -4  -1 -11   31.70    7.00
  -4  -1 -11   31.60    7.20
  -4  -1 -11   25.70    6.10
  -4   1 -12   -2.00    3.60
  -4   1 -12   -0.80    3.80
  -4   1 -12   -2.00    3.20
  -4   1 -12   -0.20    2.80
  -4   1 -12   -3.90    4.70
  -4  -1 -12   -0.70    3.60
  -4  -1 -12    1.50    6.80
  -4  -1 -12    5.50    3.80
  -4  -1 -12   -4.70    2.50
  -4  -1 -12    3.40    4.60
  -4   1 -13    3.10    3.30
  -4   1 -13    0.20    5.90
  -4   1 -13   -3.80    3.90
  -4   1 -13    3.70    4.30
  -4  -1 -13   -5.10    6.30
  -4  -1 -13   -1.40    3.70
  -4  -1 -13   -2.70    2.90
  -4  -1 -13    2.60    4.90
  -4   1 -14    5.30    5.10
  -4   1 -14    5.80    4.30
  -4   1 -14    5.90    5.30
  -4   1 -14    7.30    7.40
  -4  -1 -14   14.20    5.50
  -4  -1 -14   14.40    6.80
  -4  -1 -14   13.80    9.70
  -4   1 -15   -2.90    5.30
  -4   1 -15   -6.40    6.10
  -4  -1 -15   -4.70    6.00
  -4  -1 -15  -13.40    8.60
  -4  -1 -15    2.20    4.90
   4   2 -16    0.50    5.30
   4   2 -16   -3.20    3.70
   4   2 -16    0.30    6.50
   4  -2 -16    0.80    5.20
   4  -2 -16    2.10    5.50
   4  -2 -16   -5.40    7.00
   4   2 -15    0.60    3.00
   4   2 -15    3.00    6.20
   4   2 -15   -3.30    5.30
   4   2 -15    2.00    4.60
   4  -2 -15    2.00    7.00
   4  -2 -15   -0.80    3.80
   4  -2 -15   -2.20    4.80
   4  -2 -15   -5.20    4.90
   4   2 -14    4.30    6.00
   4   2 -14    1.50    5.00
   4   2 -14    4.00    3.90
   4   2 -14   10.00    5.20
   4  -2 -14   17.10    6.60
   4  -2 -14   10.00    7.30
   4  -2 -14    1.60    3.60
   4  -2 -14    3.40    5.40
   4   2 -13   -2.30    4.60
   4   2 -13   -1.50    3.80
   4   2 -13    0.50    3.40
   4   2 -13    0.20    2.80
   4  -2 -13   -2.10    2.90
   4  -2 -13    3.10    5.50
   4  -2 -13   -1.40    3.80
   4  -2 -13    8.90    5.00
   4   2 -12    2.00    3.20
   4   2 -12    8.60    4.30
   4   2 -12    5.10    4.30
   4   2 -12    5.70    6.10
  -4  -2  12    6.70    2.40
   4  -2 -12    3.10    5.20
   4  -2 -12    4.10    3.10
   4  -2 -12    5.00    4.40
   4  -2 -12    6.60    4.50
   4  -2 -12    7.00    3.20
   4   2 -11    4.10    3.70
   4   2 -11    1.40    2.50
   4   2 -11   11.00    6.40
   4   2 -11   -1.70    3.10
   4  -2 -11   -0.70    3.20
  -4  -2  11    3.70    2.10
   4  -2 -11    0.10    3.10
   4  -2 -11    1.60    1.90
   4  -2 -11    0.00    2.90
   4  -2 -11    6.60    3.00
   4  -2 -11    0.60    2.60
   4   2 -10    0.90    1.70
  -4   2  10    0.80    1.50
   4   2 -10   -1.80    2.10
   4   2 -10   -0.60    2.60
   4   2 -10    0.30    4.10
   4   2 -10    1.00    3.30
   4  -2 -10    3.60    3.70
   4  -2 -10    8.20    3.60
   4  -2 -10    1.10    3.20
   4  -2 -10    7.80    2.10
  -4  -2  10    9.80    2.50
   4  -2 -10    5.40    2.50
   4  -2 -10    7.20    2.70
  -4   2   9  435.46   51.29
   4   2  -9  476.05   52.59
   4   2  -9  414.06   52.49
   4   2  -9  463.05   51.49
   4   2  -9  447.86   52.69
   4   2  -9  423.86   55.49
   4  -2  -9  456.85   52.59
   4  -2  -9  455.55   51.59
   4  -2  -9  495.75   51.89
   4  -2  -9  460.85   53.59
   4  -2  -9  518.35   51.39
   4  -2  -9  527.85   52.79
  -4  -2   9  474.95   51.49
  -4  -2   9  465.65   51.29
   4   2  -8  116.19   13.90
   4   2  -8  118.19   14.90
   4   2  -8  103.39   17.20
  -4   2   8  113.59   13.90
   4   2  -8  142.89   14.00
   4   2  -8  122.19   15.20
   4   2  -8  122.69   15.30
   4  -2  -8  107.39   15.00
   4  -2  -8  111.09   14.90
  -4  -2   8  114.29   13.80
  -4  -2   8  125.39   14.10
   4  -2  -8  130.79   14.40
   4  -2  -8  142.29   14.00
   4  -2  -8  120.39   14.10
   4  -2  -8  110.09   15.60
  -4   2   7   -0.10    0.90
   4   2  -7   -3.00    1.80
   4   2  -7    0.90    1.00
   4   2  -7    0.40    1.30
   4   2  -7    0.70    1.50
   4   2  -7   -1.60    2.00
   4   2  -7    1.40    1.80
   4  -2  -7   -0.40    1.90
   4  -2  -7   -1.50    1.20
   4  -2  -7   -0.80    1.60
   4  -2  -7    0.40    1.00
  -4  -2   7   -1.90    0.70
   4  -2  -7   -1.80    1.20
   4  -2  -7    2.20    2.00
  -4  -2   7    0.90    1.20
   4   2  -6  312.47   36.90
   4   2  -6  297.97   34.80
   4   2  -6  279.47   34.80
   4   2  -6  319.37   34.30
  -4   2   6  308.57   34.00
   4   2  -6  307.87   34.60
   4   2  -6  295.27   33.90
  -4  -2   6  308.07   33.90
   4  -2  -6  306.87   35.10
   4  -2  -6  299.77   33.90
   4  -2  -6  293.97   34.70
  -4  -2   6  305.47   34.10
   4  -2  -6  333.77   34.80
   4  -2  -6  328.97   34.30
   4   2  -5 1795.32  195.58
   4   2  -5 1753.72  195.78
   4   2  -5 1630.84  195.08
   4   2  -5 1767.42  195.98
  -4   2   5 1789.22  195.18
   4   2  -5 1916.91  196.08
  -4  -2   5 1870.21  195.48
  -4  -2   5 1742.93  195.18
   4  -2  -5 1856.21  195.88
   4  -2  -5 1786.42  195.98
   4  -2  -5 1758.92  195.88
   4  -2  -5 1834.62  195.48
   4   2  -4   37.80    6.10
   4   2  -4   44.00    4.90
   4   2  -4   41.30    5.70
   4   2  -4   36.80    5.70
   4  -2  -4   39.00    5.90
  -4  -2   4   42.30    5.10
   4  -2  -4   43.80    5.60
  -4  -2   4   46.80    5.40
   4   2  -3   25.90    3.60
   4   2  -3   24.30    3.80
   4   2  -3   27.70    4.10
   4  -2  -3   27.90    4.00
  -4  -2   3   23.40    3.20
  -4  -2   3   24.40    3.60
   4   2  -2  157.28   17.40
   4   2  -2  145.89   17.90
   4   2  -2  149.69   18.10
  -4  -2   2  161.18   17.70
   4  -2  -2  154.48   17.40
   4  -2  -2  160.48   17.60
  -4  -2   2  164.08   17.40
   4   2  -1    3.40    0.80
   4   2  -1    1.80    1.20
   4   2  -1    1.00    1.10
  -4  -2   1    3.30    0.80
   4  -2  -1    2.40    0.90
   4  -2  -1    5.10    1.10
  -4  -2   1    4.60    1.40
  -4  -2   1    2.40    1.50
   4   2   0  643.64   70.59
  -4   2   0  655.03   70.39
   4   2   0  628.34   70.19
  -4  -2   0  640.64   70.69
  -4  -2   0  650.13   70.19
   4   2   1   25.70    3.60
   4   2   1   22.30    2.80
  -4   2  -1   27.30    3.40
  -4   2  -1   26.10    2.90
   4  -2   1   22.70    3.40
  -4  -2  -1   26.90    3.70
  -4  -2  -1   24.70    3.10
  -4  -2  -1   20.00    3.00
   4  -2   1   22.70    3.20
  -4  -2  -1   24.10    2.80
  -4   2  -2    2.50    1.00
  -4   2  -2    0.50    0.50
  -4   2  -2    0.70    1.00
   4   2   2    1.60    0.90
   4   2   2   -0.10    0.30
  -4  -2  -2    1.10    1.30
  -4  -2  -2    1.10    0.80
   4  -2   2    1.70    1.10
  -4  -2  -2    1.00    0.80
  -4  -2  -2    1.00    1.00
   4  -2   2    1.10    0.80
   4   2   3   60.39    7.40
  -4   2  -3   60.09    7.50
  -4   2  -3   71.29    7.70
  -4   2  -3   49.90    7.80
  -4   2  -3   60.39    7.30
  -4   2  -3   62.39    7.00
   4  -2   3   60.89    7.40
   4  -2   3   67.49    7.60
  -4  -2  -3   63.29    8.30
  -4  -2  -3   62.49    7.50
  -4  -2  -3   69.99    7.40
  -4  -2  -3   56.69    7.40
  -4   2  -4   30.10    4.30
  -4   2  -4   28.60    5.00
   4   2   4   30.20    3.90
  -4   2  -4   28.00    3.40
  -4   2  -4   25.10    4.00
  -4   2  -4   32.20    6.50
  -4   2  -4   19.60    4.00
  -4   2  -4   29.30    4.30
  -4  -2  -4   27.30    3.90
   4  -2   4   27.20    3.40
   4  -2   4   30.70    4.00
   4  -2   4   28.60    4.10
  -4  -2  -4   24.80    4.50
  -4  -2  -4   26.70    4.00
  -4  -2  -4   32.00    4.20
  -4   2  -5   -1.30    2.40
  -4   2  -5   -0.50    1.60
  -4   2  -5    1.50    1.40
   4   2   5    0.40    0.90
  -4   2  -5    0.70    1.40
  -4   2  -5    0.20    1.20
  -4   2  -5   -0.90    1.10
  -4   2  -5    0.80    0.70
  -4  -2  -5    1.10    2.70
  -4  -2  -5    0.10    1.20
  -4  -2  -5   -0.70    0.90
  -4  -2  -5    2.10    2.20
  -4  -2  -5    2.90    1.40
   4  -2   5   -1.00    0.60
  -4  -2  -5    2.10    1.00
   4  -2   5    1.20    1.30
   4  -2   5    2.00    1.20
  -4   2  -6   48.60    9.60
  -4   2  -6   37.40    7.20
  -4   2  -6   42.30    6.60
  -4   2  -6   60.79    7.30
  -4   2  -6   46.80    6.90
   4   2   6   46.90    5.70
  -4   2  -6   41.60    6.70
  -4  -2  -6   45.50    6.40
   4  -2   6   44.10    6.20
  -4  -2  -6   45.90    6.50
  -4  -2  -6   57.49    8.10
  -4  -2  -6   54.69    7.80
   4  -2   6   37.10    5.90
  -4  -2  -6   44.80    6.50
   4  -2   6   46.10    5.40
   4   2   7   23.90    3.50
  -4   2  -7   11.90    3.90
  -4   2  -7   26.50    5.00
  -4   2  -7   37.70    5.10
  -4   2  -7   22.80    7.20
  -4   2  -7   20.20    4.80
  -4   2  -7   23.60    4.50
  -4  -2  -7   31.00    6.60
  -4  -2  -7   30.40    4.40
   4  -2   7   19.30    3.50
  -4  -2  -7   26.50    4.60
  -4  -2  -7   26.90    4.50
  -4  -2  -7   18.70    4.70
  -4   2  -8    2.70    2.60
   4   2   8    1.80    1.20
  -4   2  -8    0.80    2.30
  -4   2  -8   -1.00    1.70
  -4   2  -8   -2.80    1.90
  -4   2  -8    0.00    3.80
  -4   2  -8    1.40    2.20
  -4  -2  -8    1.20    2.20
   4  -2   8    1.80    1.40
  -4  -2  -8    3.20    4.40
  -4  -2  -8    3.30    2.10
  -4  -2  -8    0.40    2.20
  -4  -2  -8    3.00    2.90
  -4   2  -9   50.39    8.20
  -4   2  -9   58.59    8.40
  -4   2  -9   37.10    8.20
  -4   2  -9   49.10    7.80
  -4   2  -9   38.10    6.90
  -4   2  -9   40.90   11.10
   4   2   9   50.29    6.20
   4  -2   9   41.70    6.10
  -4  -2  -9   49.99    7.30
  -4  -2  -9   51.89    8.50
  -4  -2  -9   45.90    7.20
  -4  -2  -9   45.90    7.50
  -4  -2  -9   42.20    9.60
  -4   2 -10    5.00    3.80
  -4   2 -10    9.70    4.00
  -4   2 -10   11.90    4.70
  -4   2 -10   10.50    4.20
  -4   2 -10   18.60    4.10
  -4   2 -10    7.20    6.60
   4  -2  10   11.80    2.50
  -4  -2 -10    7.70    6.40
  -4  -2 -10   21.10    5.20
  -4  -2 -10   15.60    4.50
  -4  -2 -10   14.90    4.00
  -4  -2 -10   19.00    4.40
  -4   2 -11   24.20    6.10
  -4   2 -11   18.50    8.30
  -4   2 -11   25.90    6.20
  -4   2 -11   21.50    5.10
  -4   2 -11   23.50    6.40
  -4  -2 -11   32.90    5.90
  -4  -2 -11   28.70    5.50
  -4  -2 -11   26.70    9.20
   4  -2  11   21.60    3.80
  -4  -2 -11   33.70    6.90
  -4  -2 -11   18.70    5.90
  -4   2 -12    2.10    3.30
  -4   2 -12    1.20    4.90
  -4   2 -12    3.20    3.90
  -4   2 -12    1.60    3.60
  -4  -2 -12    0.60    3.20
   4  -2  12   -0.50    1.40
  -4  -2 -12   -5.10    7.00
  -4  -2 -12   -1.40    3.70
  -4  -2 -12    2.00    4.20
  -4   2 -13    5.50    3.60
  -4   2 -13   -0.80    4.10
  -4   2 -13   -3.30    5.00
  -4   2 -13    5.60    4.40
  -4  -2 -13   -3.60    7.90
  -4  -2 -13   -1.20    3.80
  -4  -2 -13    0.20    4.40
  -4   2 -14   -1.90    5.40
  -4   2 -14    5.70    5.20
  -4   2 -14    2.80    3.50
  -4  -2 -14    7.00    5.80
  -4  -2 -14    0.40    4.60
  -4  -2 -14    5.40   10.90
  -4   2 -15   41.40   10.20
  -4   2 -15   43.20   12.70
  -4  -2 -15   72.89   17.90
  -4  -2 -15   52.49   10.50
  -4  -2 -15   95.49   12.40
   4   3 -16    4.90    5.70
   4   3 -16    4.00    3.80
   4   3 -16    8.20    8.20
   4  -3 -16    3.90    5.70
   4  -3 -16    5.10    6.00
   4  -3 -16   -3.00    8.30
   4   3 -15   23.50    6.90
   4   3 -15   11.50    8.90
   4   3 -15   46.60    9.20
   4  -3 -15   35.10   11.30
   4  -3 -15   61.99   10.10
   4  -3 -15   36.30    8.40
   4   3 -14   50.29   14.00
   4   3 -14   49.60   10.10
   4   3 -14   41.30    9.10
   4  -3 -14   54.89    9.70
   4  -3 -14   54.19   12.20
   4  -3 -14   57.49   10.60
   4   3 -13   31.20    8.00
   4   3 -13   25.90    7.50
   4   3 -13   33.20    7.90
   4   3 -13   30.30   11.50
  -4  -3  13   35.50    5.90
   4  -3 -13   47.50    6.90
   4  -3 -13   35.70    7.00
   4  -3 -13   43.90   10.80
   4  -3 -13   61.09    9.70
   4  -3 -13   36.50    8.10
   4   3 -12   -0.30    2.80
   4   3 -12   -2.00    3.80
   4   3 -12    1.20    3.30
   4   3 -12   -3.70    3.10
   4  -3 -12   -3.90    2.60
   4  -3 -12    1.70    4.00
   4  -3 -12    2.70    5.30
   4  -3 -12    0.40    2.20
  -4  -3  12   -0.10    1.90
   4  -3 -12    4.10    4.20
   4   3 -11   -0.50    2.60
   4   3 -11   -1.30    3.00
   4   3 -11    1.90    3.20
   4   3 -11   -2.40    4.10
   4  -3 -11    2.10    2.40
   4  -3 -11    3.40    3.40
   4  -3 -11   -2.30    2.00
  -4  -3  11   -3.30    1.70
   4  -3 -11    1.90    3.40
   4  -3 -11    4.70    5.40
   4   3 -10    8.40    3.50
   4   3 -10   13.20    6.80
   4   3 -10    7.00    3.30
   4   3 -10    9.80    3.90
  -4  -3  10    5.50    2.50
   4  -3 -10    5.60    3.80
   4  -3 -10    2.80    3.30
   4  -3 -10    6.50    2.80
   4  -3 -10    5.30    2.60
   4  -3 -10    4.70    4.40
   4   3  -9  204.18   26.60
   4   3  -9  196.68   29.50
  -4   3   9  222.78   25.30
   4   3  -9  161.98   25.10
   4   3  -9  244.18   26.50
   4   3  -9  231.08   26.80
   4  -3  -9  240.68   27.30
   4  -3  -9  232.38   26.50
   4  -3  -9  232.48   25.90
   4  -3  -9  276.97   25.40
   4  -3  -9  204.88   26.40
  -4  -3   9  222.38   25.50
  -4  -3   9  215.68   25.30
   4   3  -8  205.48   22.20
   4   3  -8  164.58   21.90
   4   3  -8  168.68   20.70
   4   3  -8  166.68   24.70
  -4   3   8  171.88   20.70
   4   3  -8  170.58   20.90
   4   3  -8  178.58   21.60
   4  -3  -8  179.98   21.90
   4  -3  -8  208.28   20.70
   4  -3  -8  216.88   22.60
   4  -3  -8  181.68   21.30
  -4  -3   8  162.88   20.60
   4  -3  -8  193.68   21.70
  -4  -3   8  178.08   21.00
   4   3  -7   32.40    5.40
   4   3  -7   24.80    7.50
   4   3  -7   31.40    4.50
   4   3  -7   28.00    5.80
   4   3  -7   33.10    6.10
  -4   3   7   30.30    4.60
   4   3  -7   36.00    5.30
  -4  -3   7   29.70    5.20
   4  -3  -7   36.80    4.40
   4  -3  -7   27.00    5.40
  -4  -3   7   33.50    4.50
  -4  -3   7   30.60    4.90
   4  -3  -7   40.80    6.10
   4  -3  -7   37.60    6.50
   4  -3  -7   23.10    4.70
   4   3  -6  153.48   19.50
   4   3  -6  169.08   20.30
   4   3  -6  185.68   20.20
   4   3  -6  170.68   20.70
  -4   3   6  163.78   19.60
   4   3  -6  154.78   20.50
   4   3  -6  167.18   20.10
   4  -3  -6  209.18   20.80
  -4  -3   6  184.28   20.20
  -4  -3   6  161.18   19.50
   4  -3  -6  166.58   20.20
   4  -3  -6  144.29   20.30
   4  -3  -6  208.48   19.50
   4  -3  -6  167.98   20.00
  -4  -3   6  165.28   19.90
   4   3  -5  291.87   31.10
  -4   3   5  269.07   30.20
   4   3  -5  291.97   30.80
   4   3  -5  303.67   31.30
   4   3  -5  289.97   30.60
   4   3  -5  276.57   30.00
   4   3  -5  246.28   30.50
   4  -3  -5  249.48   30.80
  -4  -3   5  258.07   30.10
  -4  -3   5  273.87   30.70
   4  -3  -5  270.37   30.50
  -4  -3   5  247.08   30.40
   4  -3  -5  284.97   30.70
  -4   3   4    2.70    1.10
   4   3  -4    3.20    1.90
   4   3  -4    4.60    1.50
   4   3  -4    0.70    1.30
   4   3  -4    3.30    1.40
  -4  -3   4    4.20    1.50
  -4  -3   4    2.10    1.60
   4  -3  -4    0.10    1.20
   4  -3  -4    6.80    1.90
   4  -3  -4    5.50    2.90
  -4  -3   4    3.60    1.10
   4  -3  -4    5.40    1.00
   4   3  -3    0.30    1.30
   4   3  -3    3.10    1.60
   4   3  -3   -1.00    1.10
  -4   3   3    0.90    0.90
  -4  -3   3   -0.80    0.60
   4  -3  -3   -0.20    0.60
  -4  -3   3   -0.70    0.90
  -4  -3   3    1.10    1.30
   4  -3  -3    1.40    1.10
   4   3  -2   11.20    2.50
   4   3  -2   12.80    2.40
   4   3  -2   11.60    2.60
  -4   3   2   10.00    1.90
   4  -3  -2    9.80    2.00
  -4  -3   2    9.60    1.80
  -4  -3   2   12.60    2.50
   4  -3  -2   13.70    1.90
  -4  -3   2   10.70    2.20
   4   3  -1  553.44   62.69
  -4   3   1  569.04   62.19
   4   3  -1  589.44   62.59
   4   3  -1  575.44   62.09
  -4  -3   1  554.34   62.39
   4  -3  -1  549.35   62.19
  -4  -3   1  569.04   61.99
  -4  -3   1  580.04   62.59
   4   3   0  573.44   65.29
  -4   3   0  593.84   65.39
   4   3   0  633.84   65.79
   4   3   0  591.94   65.89
  -4  -3   0  610.14   65.29
   4  -3   0  607.04   65.49
  -4  -3   0  571.34   65.69
  -4  -3   0  571.84   65.79
   4  -3   0  624.94   65.59
  -4   3  -1  378.46   40.80
   4   3   1  377.36   40.50
   4   3   1  371.06   41.20
   4   3   1  360.16   41.00
   4  -3   1  369.26   41.00
  -4  -3  -1  383.66   41.10
   4  -3   1  371.66   40.90
  -4  -3  -1  355.86   41.00
  -4  -3  -1  364.16   40.50
   4   3   2   10.30    1.60
  -4   3  -2    9.60    2.50
   4   3   2   15.20    2.50
  -4   3  -2   11.10    2.00
  -4  -3  -2   10.10    2.50
   4  -3   2   13.50    2.30
   4  -3   2   15.80    2.60
  -4  -3  -2   11.30    2.30
  -4  -3  -2   12.50    2.10
  -4  -3  -2   12.10    1.90
  -4   3  -3   16.00    2.80
  -4   3  -3   17.60    5.00
   4   3   3   16.70    2.80
   4   3   3   15.20    2.00
  -4   3  -3   20.00    2.60
  -4   3  -3   16.90    3.50
  -4   3  -3   15.60    2.70
   4  -3   3   13.40    2.80
  -4  -3  -3   10.60    2.50
  -4  -3  -3   13.60    3.00
   4  -3   3   14.20    2.70
  -4  -3  -3   15.50    2.50
  -4  -3  -3   34.40    6.00
  -4  -3  -3   11.80    2.40
  -4   3  -4  154.38   19.70
  -4   3  -4  142.69   17.50
   4   3   4  147.99   17.40
  -4   3  -4  125.29   17.90
  -4   3  -4  148.39   17.50
  -4   3  -4  164.08   17.30
  -4  -3  -4  174.18   17.30
  -4  -3  -4  148.79   17.40
  -4  -3  -4  145.09   17.90
   4  -3   4  158.78   17.70
  -4  -3  -4  159.08   17.30
   4  -3   4  146.29   17.40
   4   3   5  217.08   25.00
  -4   3  -5  218.68   25.30
  -4   3  -5  187.78   25.70
  -4   3  -5  240.38   25.50
  -4   3  -5  227.18   25.00
  -4   3  -5  221.18   25.20
  -4   3  -5  209.58   27.60
  -4  -3  -5  228.98   24.80
   4  -3   5  221.78   25.10
  -4  -3  -5  206.08   25.70
  -4  -3  -5  247.18   25.00
   4  -3   5  227.98   25.30
   4  -3   5  224.18   24.60
  -4  -3  -5  215.78   25.00
  -4   3  -6  142.49   17.80
   4   3   6  157.58   17.40
  -4   3  -6  151.88   20.70
  -4   3  -6  164.08   18.00
  -4   3  -6  121.59   18.30
  -4   3  -6  163.58   18.20
  -4   3  -6  159.18   17.70
   4  -3   6  145.09   17.50
  -4  -3  -6  157.98   17.70
   4  -3   6  157.08   17.80
   4  -3   6  136.69   17.00
  -4  -3  -6  181.78   17.70
  -4  -3  -6  148.29   18.40
  -4   3  -7   28.70    4.80
  -4   3  -7   20.00    5.20
  -4   3  -7   26.50    4.90
  -4   3  -7   22.00    4.70
  -4   3  -7   19.90    7.10
   4   3   7   24.60    3.90
  -4   3  -7   23.20    4.40
  -4  -3  -7   30.70    7.00
  -4  -3  -7   23.60    4.20
   4  -3   7   24.60    4.30
  -4  -3  -7   24.60    5.20
  -4  -3  -7   26.50    4.40
   4  -3   7   24.00    4.00
  -4   3  -8   11.70    4.40
  -4   3  -8   17.40    4.20
  -4   3  -8   13.00    6.30
  -4   3  -8   18.20    4.20
  -4   3  -8   10.30    3.50
   4   3   8   19.60    3.10
  -4   3  -8   17.70    4.40
  -4  -3  -8   15.50    3.70
  -4  -3  -8   15.50    4.70
   4  -3   8   11.50    2.90
  -4  -3  -8   17.90    3.90
  -4  -3  -8   26.70    7.60
  -4   3  -9   63.19   12.20
  -4   3  -9   74.99   12.20
  -4   3  -9   79.19   11.90
  -4   3  -9   92.99   17.20
  -4   3  -9   88.89   12.60
  -4   3  -9   64.29   11.20
  -4  -3  -9  130.19   16.00
  -4  -3  -9  104.39   11.50
   4  -3   9   80.19   10.40
  -4  -3  -9   87.59   11.50
  -4  -3  -9   86.19   13.00
  -4   3 -10  166.88   20.80
  -4   3 -10  161.78   21.50
  -4   3 -10  164.38   24.40
  -4   3 -10  150.58   19.90
  -4   3 -10  130.99   20.80
  -4   3 -10  183.38   20.90
   4  -3  10  160.08   19.30
  -4  -3 -10  171.58   21.10
  -4  -3 -10  213.68   20.60
  -4  -3 -10  175.88   20.10
  -4   3 -11   47.10    9.90
  -4   3 -11   74.99   10.80
  -4   3 -11   46.30   12.90
  -4   3 -11   65.49    9.40
  -4   3 -11   46.80    9.20
  -4   3 -11   67.89   10.30
  -4  -3 -11   71.29   14.40
  -4  -3 -11   59.49    9.00
  -4  -3 -11   83.79   10.40
  -4  -3 -11   59.29   10.40
   4  -3  11   48.10    7.50
  -4   3 -12    0.80    6.00
  -4   3 -12    3.70    3.90
  -4   3 -12   -3.90    3.50
  -4   3 -12    2.10    2.90
  -4  -3 -12    0.00    3.90
   4  -3  12   -0.90    1.50
  -4  -3 -12   -5.90    8.90
  -4  -3 -12    5.20    4.20
  -4   3 -13    5.00    3.30
  -4   3 -13    9.20    7.00
  -4   3 -13    1.10    4.70
  -4  -3 -13   11.10    5.40
  -4  -3 -13   11.10   11.20
   4  -3  13    5.10    2.00
  -4  -3 -13    5.50    4.90
  -4   3 -14   -2.90    5.20
  -4   3 -14   -1.40    4.20
  -4   3 -14    0.30    3.60
  -4  -3 -14    3.10    4.90
  -4  -3 -14   -3.50    4.30
  -4  -3 -14   -6.50   11.50
   4   4 -15   26.60    7.50
   4   4 -15   29.80   12.20
   4   4 -15   47.10    8.90
   4  -4 -15   47.20   12.80
   4  -4 -15   30.60    8.80
   4   4 -14   -0.90    6.30
   4   4 -14    1.20    4.00
   4   4 -14   -3.80    3.10
  -4  -4  14    1.80    2.40
   4  -4 -14   -6.70    7.40
   4  -4 -14   -3.90    5.10
   4  -4 -14   -1.90    3.00
   4   4 -13    5.20    4.20
   4   4 -13    6.80    7.20
   4   4 -13    3.80    3.70
  -4  -4  13    2.80    2.70
   4  -4 -13    7.10    3.80
   4  -4 -13    7.60    7.60
   4  -4 -13    2.40    4.80
   4   4 -12    5.60    4.30
   4   4 -12    0.20    3.30
   4   4 -12   -1.50    5.10
   4  -4 -12    3.50    4.00
   4  -4 -12    0.20    6.80
   4  -4 -12    6.40    4.60
  -4  -4  12    3.80    2.60
   4  -4 -12    3.50    3.00
   4  -4 -12   -3.20    2.70
   4   4 -11   40.30    8.30
   4   4 -11   30.10    7.20
   4   4 -11   15.80    9.20
   4  -4 -11   34.80    7.70
   4  -4 -11   36.30    6.60
  -4  -4  11   35.00    6.10
   4  -4 -11   56.79   10.60
   4  -4 -11   37.90    5.60
   4  -4 -11   36.90    7.50
   4   4 -10   33.10   11.40
   4   4 -10   28.00    7.50
   4   4 -10   40.10    7.70
   4   4 -10   38.40    8.00
   4  -4 -10   51.39    9.90
   4  -4 -10   29.90    7.40
   4  -4 -10   56.49    6.20
  -4  -4  10   39.70    6.70
   4  -4 -10   47.80    8.10
   4  -4 -10   35.70    6.80
   4   4  -9   21.10    5.20
   4   4  -9   11.10    6.40
   4   4  -9   12.20    4.50
   4   4  -9   23.60    5.10
   4   4  -9   16.70    3.50
  -4   4   9   19.30    3.40
  -4  -4   9   12.60    3.60
   4  -4  -9   20.80    6.50
   4  -4  -9   17.90    3.20
   4  -4  -9   12.60    3.80
   4  -4  -9   32.40    5.80
   4  -4  -9   14.20    4.50
   4   4  -8   -1.80    2.10
   4   4  -8   -0.70    2.20
   4   4  -8    1.20    1.50
   4   4  -8   -0.80    3.20
  -4   4   8    0.70    1.40
   4   4  -8    4.10    2.10
  -4   4   8   -1.80    1.30
   4   4  -8    5.20    3.30
   4  -4  -8    0.00    2.00
  -4  -4   8    1.10    1.90
   4  -4  -8   -1.70    4.00
   4  -4  -8   -0.60    1.20
   4  -4  -8   -2.80    2.30
  -4  -4   8   -1.70    1.30
   4  -4  -8   -0.20    2.30
   4   4  -7    2.00    2.20
   4   4  -7    6.60    3.10
   4   4  -7    0.90    1.90
   4   4  -7    3.80    2.40
   4   4  -7    1.80    1.30
  -4   4   7    5.50    1.80
  -4  -4   7    0.60    1.20
  -4  -4   7    5.50    2.70
   4  -4  -7    0.40    3.20
  -4  -4   7   -0.40    1.50
   4  -4  -7    0.60    1.80
   4  -4  -7    3.60    2.40
   4  -4  -7    3.20    1.20
   4  -4  -7    2.10    3.90
   4   4  -6   30.80    5.40
   4   4  -6   32.00    5.70
  -4   4   6   37.20    5.10
   4   4  -6   33.10    4.70
   4   4  -6   35.70    6.30
   4   4  -6   43.50    5.80
   4   4  -6   28.10    5.90
  -4  -4   6   30.20    5.30
   4  -4  -6   56.59    7.70
  -4  -4   6   35.10    5.90
   4  -4  -6   38.30    4.50
  -4  -4   6   33.00    4.80
   4  -4  -6   31.90    5.50
   4  -4  -6   29.90    5.80
  -4   4   5   84.49   10.60
   4   4  -5   94.29   11.40
   4   4  -5   86.59   12.00
   4   4  -5  104.69   11.00
   4   4  -5   99.99   11.10
   4  -4  -5   82.69   11.20
  -4  -4   5   81.39   10.80
  -4  -4   5   95.89   10.50
   4  -4  -5   85.79   10.90
  -4  -4   5   85.29   11.20
  -4   4   4   23.90    3.40
   4   4  -4   20.70    4.00
   4   4  -4   27.60    4.10
   4   4  -4   22.60    4.20
  -4  -4   4   15.40    3.60
   4  -4  -4   25.10    3.00
  -4  -4   4   13.10    2.80
   4  -4  -4   23.30    4.00
  -4  -4   4   21.00    3.60
   4  -4  -4   22.30    3.60
   4   4  -3   42.50    6.10
   4   4  -3   38.10    6.10
  -4   4   3   40.50    5.50
   4   4  -3   45.40    6.40
  -4  -4   3   41.50    5.90
  -4  -4   3   47.00    5.20
   4  -4  -3   45.60    6.10
   4  -4  -3   39.20    5.10
  -4  -4   3   43.00    6.30
   4   4  -2    3.90    1.90
   4   4  -2    4.80    2.00
   4   4  -2    4.60    1.90
   4   4  -2    5.10    1.30
  -4   4   2    7.00    1.60
  -4  -4   2    7.90    2.30
   4  -4  -2    8.90    1.60
  -4  -4   2    6.20    1.70
  -4  -4   2    6.80    1.30
   4  -4  -2    6.30    1.60
  -4   4   1   -0.30    0.80
   4   4  -1    0.60    1.50
   4   4  -1   -0.70    0.90
  -4  -4   1    2.40    1.70
  -4  -4   1    0.70    0.70
   4  -4  -1   -0.30    0.70
  -4  -4   1   -0.30    1.10
   4  -4  -1   -0.50    0.70
   4  -4  -1   -0.30    0.90
   4   4   0    1.00    1.20
   4   4   0   -0.40    1.40
  -4   4   0    0.20    0.90
  -4  -4   0    0.40    1.00
  -4  -4   0   -0.30    0.60
  -4  -4   0    1.00    1.20
   4  -4   0    0.00    0.90
  -4  -4   0    0.20    1.10
   4  -4   0   -0.30    0.80
   4   4   1  719.63   81.49
  -4   4  -1  731.93   81.19
   4   4   1  762.22   81.79
  -4   4  -1  763.72   81.69
   4  -4   1  774.32   81.29
  -4  -4  -1  732.63   81.59
  -4  -4  -1  760.82   81.39
   4  -4   1  710.43   81.39
  -4  -4  -1  683.63   81.39
  -4  -4  -1  763.02   80.89
  -4   4  -2  566.14   65.39
   4   4   2  602.44   65.39
   4   4   2  597.94   65.19
  -4   4  -2  568.94   64.89
   4   4   2  612.64   64.59
  -4  -4  -2  579.64   65.19
  -4  -4  -2  569.74   65.19
   4  -4   2  617.14   65.09
   4  -4   2  597.04   65.19
   4   4   3    4.20    2.10
   4   4   3    7.20    2.10
  -4   4  -3    4.10    1.50
  -4   4  -3    9.90    3.00
  -4  -4  -3    6.30    2.30
   4  -4   3    8.60    1.90
  -4  -4  -3    8.20    1.80
  -4  -4  -3   11.50    2.30
   4  -4   3   10.90    2.40
  -4   4  -4   81.59   10.00
  -4   4  -4   72.59   10.70
  -4   4  -4   86.79   10.20
  -4   4  -4  101.49    9.80
  -4   4  -4   86.39   12.80
   4   4   4   87.69   10.10
  -4  -4  -4   82.29    9.90
  -4  -4  -4   82.19    9.80
  -4  -4  -4   79.79    9.90
   4  -4   4   79.19   10.30
  -4  -4  -4   76.59   10.90
   4  -4   4   79.89   10.10
  -4   4  -5   39.90    5.90
  -4   4  -5   32.10    8.40
   4   4   5   34.30    5.50
  -4   4  -5   33.90    6.70
  -4   4  -5   39.90    5.90
  -4   4  -5   50.49    5.80
  -4  -4  -5   34.30    6.30
   4  -4   5   40.40    5.10
  -4  -4  -5   35.00    5.50
  -4  -4  -5   40.60    5.30
  -4  -4  -5   43.40    5.30
   4  -4   5   35.10    5.90
   4  -4   5   34.40    5.50
  -4  -4  -5   75.79   10.10
  -4   4  -6   13.40    5.70
  -4   4  -6   14.90    2.90
   4   4   6   10.50    2.40
  -4   4  -6   12.80    3.20
  -4   4  -6    4.00    2.40
  -4   4  -6   13.70    2.90
  -4   4  -6   12.00    3.70
   4  -4   6    7.40    2.40
  -4  -4  -6    6.90    2.30
  -4  -4  -6   20.90    7.40
  -4  -4  -6   12.00    3.80
   4  -4   6    9.20    2.80
   4  -4   6   10.90    1.90
  -4  -4  -6   13.60    2.70
  -4   4  -7   11.30    3.30
  -4   4  -7    4.90    2.40
  -4   4  -7    4.40    2.30
  -4   4  -7    2.40    2.10
   4   4   7    4.50    1.80
  -4   4  -7    1.00    4.00
  -4   4  -7    5.20    2.90
  -4  -4  -7    2.90    3.10
  -4  -4  -7    6.90    2.40
  -4  -4  -7   11.00    7.10
  -4  -4  -7    4.90    2.00
   4  -4   7    3.70    2.00
   4  -4   7   11.90    2.70
  -4   4  -8   28.30    8.60
  -4   4  -8   12.70    5.00
  -4   4  -8   18.40    4.70
   4   4   8   18.50    3.60
  -4   4  -8   26.00    5.30
  -4   4  -8   27.20    4.60
  -4   4  -8   24.10    4.90
   4  -4   8   18.30    3.80
  -4  -4  -8   31.40    6.20
  -4  -4  -8   25.00    4.50
  -4  -4  -8   29.20    4.60
  -4  -4  -8   35.50    9.60
  -4   4  -9  263.87   28.90
  -4   4  -9  174.48   28.90
  -4   4  -9  266.57   28.80
  -4   4  -9  273.97   29.30
  -4   4  -9  243.58   28.10
  -4   4  -9  234.58   32.50
   4  -4   9  216.18   27.80
  -4  -4  -9  300.87   28.40
  -4  -4  -9  249.88   29.50
  -4  -4  -9  247.58   28.20
  -4   4 -10   42.80    8.00
  -4   4 -10   38.90   11.90
  -4   4 -10   35.80    8.50
  -4   4 -10   57.89    9.10
  -4   4 -10   62.69    8.30
  -4   4 -10   62.29    9.30
  -4  -4 -10   56.39    7.90
  -4  -4 -10   43.50    7.40
   4  -4  10   45.40    6.70
  -4  -4 -10   37.30    8.60
  -4   4 -11   -2.30    2.80
  -4   4 -11    9.00    3.90
  -4   4 -11    0.30    4.00
  -4   4 -11    1.30    2.80
  -4   4 -11    2.90    5.40
  -4   4 -11    1.70    3.80
   4  -4  11   -0.80    1.70
  -4  -4 -11   -2.70    9.70
  -4  -4 -11    0.30    4.00
  -4  -4 -11    5.10    3.70
  -4  -4 -11    1.40    2.60
  -4   4 -12   -0.20    3.40
  -4   4 -12    1.60    5.30
  -4   4 -12    5.00    4.50
  -4   4 -12    0.90    2.90
  -4  -4 -12   -0.40    3.60
   4  -4  12    4.60    2.20
  -4  -4 -12    0.80    4.00
  -4  -4 -12    1.90   11.30
  -4   4 -13   -1.50    3.30
  -4   4 -13    3.90    6.50
  -4   4 -13    0.80    3.70
   4  -4  13    0.40    1.80
  -4  -4 -13    2.30    4.80
  -4  -4 -13  -18.70   11.30
  -4  -4 -13    4.60    4.30
  -4   4 -14    5.60    5.10
  -4   4 -14    5.80   10.40
  -4  -4 -14    7.50    5.70
  -4  -4 -14    9.00    4.80
  -4  -4 -14   -0.90   13.70
   4  -4  14    4.50    2.50
   4   5 -15   -1.30    4.30
   4   5 -15   -3.20    7.00
   4   5 -15    3.80    4.80
   4  -5 -15  -11.10    8.80
   4   5 -14   15.70    9.50
   4   5 -14   14.80    6.00
   4   5 -14   13.00    5.90
  -4  -5  14   16.90    4.20
   4  -5 -14   16.40    4.80
   4  -5 -14   13.80    9.70
   4   5 -13   23.40    7.20
   4   5 -13   17.50    9.70
   4   5 -13   37.30    7.90
   4  -5 -13   49.20   12.20
   4  -5 -13   31.00    6.50
   4  -5 -13   25.50    7.70
   4   5 -12    0.20    6.00
   4   5 -12    0.50    3.40
   4   5 -12    3.20    3.90
   4  -5 -12   -6.10    7.20
  -4  -5  12    2.90    2.70
   4  -5 -12   -1.20    2.50
   4  -5 -12    1.00    4.10
   4   5 -11   28.20   11.40
   4   5 -11   36.10    8.40
  -4   5  11   46.60    6.90
   4   5 -11   48.20    9.30
  -4  -5  11   51.79    7.70
   4  -5 -11   57.79    9.70
   4  -5 -11   45.50    8.20
   4  -5 -11   70.69   12.50
   4   5 -10   29.30    7.80
   4   5 -10   32.30    7.20
   4   5 -10   27.80   10.70
  -4   5  10   33.80    5.70
   4  -5 -10   37.30    7.60
   4  -5 -10   63.19   11.20
   4  -5 -10   34.30    6.70
  -4  -5  10   46.10    6.90
  -4   5   9   31.20    5.20
   4   5  -9   35.00    7.20
   4   5  -9   20.70    8.70
   4   5  -9   37.30    7.60
   4  -5  -9   61.49   10.30
   4  -5  -9   36.40    5.10
  -4  -5   9   30.90    5.90
   4  -5  -9   32.00    6.70
   4  -5  -9   22.50    5.60
   4   5  -8  172.48   21.10
   4   5  -8  179.18   20.70
  -4   5   8  165.08   19.90
   4   5  -8  146.89   24.20
   4   5  -8  150.68   21.30
   4   5  -8  154.68   19.80
  -4  -5   8  167.28   20.40
   4  -5  -8  173.88   20.60
   4  -5  -8  197.28   19.60
  -4  -5   8  199.18   21.00
   4  -5  -8  170.98   21.10
   4   5  -7   70.39   10.30
   4   5  -7   67.49    8.50
   4   5  -7   61.49   10.60
   4   5  -7   82.39   10.30
  -4   5   7   66.09    8.60
   4  -5  -7   58.19    9.30
  -4  -5   7   70.99    9.90
  -4  -5   7   58.49    9.10
   4  -5  -7   69.79   10.20
   4   5  -6  201.78   24.00
   4   5  -6  208.28   24.50
   4   5  -6  213.38   24.10
  -4   5   6  185.48   23.10
   4   5  -6  238.78   23.80
   4  -5  -6  205.78   23.60
  -4  -5   6  210.48   24.00
   4  -5  -6  189.98   23.90
  -4  -5   6  200.98   23.00
  -4  -5   6  193.98   23.60
   4   5  -5   35.40    5.80
   4   5  -5   37.70    6.10
   4   5  -5   30.20    5.30
  -4   5   5   30.90    4.80
  -4  -5   5   32.70    4.60
  -4  -5   5   37.80    6.10
   4  -5  -5   30.60    5.60
   4  -5  -5   29.20    5.20
  -4  -5   5   33.50    5.40
   4   5  -4  115.19   14.10
  -4   5   4  115.79   13.60
   4   5  -4  112.09   14.50
   4   5  -4  128.59   14.20
  -4  -5   4  121.59   13.40
   4  -5  -4  109.59   14.00
   4  -5  -4  121.99   13.20
  -4  -5   4  105.09   13.90
  -4  -5   4  109.99   14.10
   4   5  -3  176.08   18.70
   4   5  -3  157.68   17.60
   4   5  -3  166.28   18.90
   4   5  -3  157.58   18.30
  -4   5   3  149.79   17.90
   4  -5  -3  145.99   18.10
  -4  -5   3  147.19   18.60
   4  -5  -3  146.29   17.70
  -4  -5   3  164.88   17.70
  -4  -5   3  174.58   18.40
   4   5  -2   42.80    5.10
   4   5  -2   42.50    6.20
   4   5  -2   30.00    5.90
   4   5  -2   50.99    6.20
  -4   5   2   38.10    5.40
  -4  -5   2   32.30    4.90
   4  -5  -2   36.40    5.20
   4  -5  -2   44.20    5.50
  -4  -5   2   39.10    6.20
  -4  -5   2   39.80    5.80
   4   5  -1  387.06   44.10
   4   5  -1  423.06   43.50
  -4   5   1  380.66   43.30
   4   5  -1  392.96   43.20
   4   5  -1  373.46   43.70
   4  -5  -1  371.16   43.10
  -4  -5   1  391.06   43.20
   4  -5  -1  392.46   43.40
  -4  -5   1  373.46   43.80
  -4  -5   1  398.76   43.00
  -4  -5   1  413.06   43.60
   4   5   0  130.19   16.20
  -4   5   0  133.49   15.60
   4   5   0  142.89   16.50
  -4  -5   0  135.29   15.90
  -4  -5   0  142.09   15.40
   4  -5   0  132.79   15.90
  -4  -5   0  130.09   16.20
   4  -5   0  145.39   15.70
  -4  -5   0  134.39   15.70
  -4   5  -1   17.60    3.80
   4   5   1   15.60    3.30
   4   5   1   15.60    3.60
  -4   5  -1   12.40    2.60
  -4  -5  -1   16.40    3.30
   4  -5   1   17.40    3.00
  -4  -5  -1   15.00    2.40
  -4  -5  -1   14.50    3.20
  -4  -5  -1   25.70    4.00
   4  -5   1   19.60    3.40
  -4   5  -2  219.38   25.90
   4   5   2  220.58   26.60
  -4   5  -2  235.28   26.80
   4   5   2  236.58   26.40
  -4  -5  -2  232.98   26.40
  -4  -5  -2  253.47   26.40
   4  -5   2  233.98   26.40
   4  -5   2  222.98   26.10
  -4   5  -3   21.40    3.60
  -4   5  -3   26.30    5.10
   4   5   3   28.10    4.30
   4  -5   3   26.80    4.40
   4  -5   3   24.70    4.00
  -4  -5  -3   18.30    3.80
  -4  -5  -3   21.60    4.40
   4   5   4    0.50    1.50
  -4   5  -4    0.60    1.30
  -4   5  -4    3.50    2.40
   4  -5   4   -0.10    1.40
  -4  -5  -4   -1.50    1.90
  -4  -5  -4    0.40    1.30
   4  -5   4    2.60    1.60
  -4   5  -5    6.50    2.60
  -4   5  -5    7.30    2.40
  -4   5  -5    9.30    5.10
   4   5   5    7.10    2.30
  -4   5  -5    8.70    3.50
  -4  -5  -5    9.60    2.30
   4  -5   5    7.90    2.50
  -4  -5  -5   15.00    3.90
   4  -5   5   13.70    3.20
  -4   5  -6    0.90    1.50
  -4   5  -6   -1.00    2.20
  -4   5  -6    2.40    4.00
  -4   5  -6    1.70    1.90
  -4   5  -6    0.00    1.60
   4   5   6   -0.50    1.30
   4  -5   6    0.00    1.90
  -4  -5  -6   -1.80    2.50
  -4  -5  -6   -7.60    6.40
  -4  -5  -6    0.90    1.50
   4  -5   6   -2.00    1.40
  -4   5  -7   20.80    4.80
  -4   5  -7   18.80    7.30
  -4   5  -7   19.70    5.50
  -4   5  -7   26.50    4.80
   4   5   7   22.80    4.00
  -4   5  -7   19.90    4.40
   4  -5   7   20.80    4.20
  -4  -5  -7   17.70    5.20
  -4  -5  -7   47.60   10.70
  -4  -5  -7   26.60    4.40
   4  -5   7   31.30    5.20
  -4   5  -8   11.90    4.60
  -4   5  -8   14.30    7.00
  -4   5  -8   21.00    4.50
  -4   5  -8   19.90    4.60
  -4   5  -8   18.60    4.60
   4   5   8   20.30    3.80
   4  -5   8   17.30    3.70
  -4  -5  -8   17.30    3.80
   4  -5   8   12.80    3.80
  -4  -5  -8   19.10    5.20
  -4  -5  -8   34.60   10.70
  -4   5  -9   66.59   11.70
  -4   5  -9   58.09   10.90
  -4   5  -9   74.09   10.50
  -4   5  -9   85.99   11.00
  -4   5  -9   47.00   13.00
  -4   5  -9   60.99    9.70
  -4  -5  -9   61.59   10.60
  -4  -5  -9   71.79    9.60
   4  -5   9   54.29    8.70
  -4  -5  -9   95.09   15.90
  -4   5 -10    3.80    4.00
  -4   5 -10   -0.70    3.20
  -4   5 -10    6.00    3.70
  -4   5 -10    3.10    3.60
  -4   5 -10    5.20    5.70
  -4   5 -10   -2.00    2.80
   4  -5  10    1.10    2.00
  -4  -5 -10    2.00    3.70
  -4  -5 -10    4.70   10.70
  -4  -5 -10    1.90    2.60
  -4   5 -11   24.90    6.40
  -4   5 -11   24.40    9.60
  -4   5 -11   14.50    5.90
   4  -5  11   16.60    4.00
  -4  -5 -11   34.70    5.90
  -4  -5 -11   16.20    6.20
  -4  -5 -11   39.90   14.20
  -4   5 -12    9.00    4.90
  -4   5 -12   15.30    8.10
  -4  -5 -12   36.20   14.20
  -4  -5 -12    6.40    5.30
   4  -5  12   11.90    3.10
  -4  -5 -12   21.10    5.00
  -4   5 -13   -0.30    4.10
  -4  -5 -13    7.00    3.60
   4  -5  13    1.10    2.10
  -4  -5 -13    6.90    5.30
  -4  -5 -13    1.50   12.30
   4   6 -14    5.70    5.10
   4   6 -14    7.10    7.80
  -4  -6  14    8.90    3.70
   4  -6 -14   13.30    4.70
   4  -6 -14    7.70    9.00
   4   6 -13   48.00   15.90
   4   6 -13   49.60   11.90
   4   6 -13   80.49   14.30
  -4  -6  13   75.39   10.70
   4  -6 -13  121.39   17.60
   4  -6 -13   85.49   11.60
   4   6 -12   21.90    5.90
   4   6 -12   13.20    5.70
   4   6 -12   20.10    9.80
   4  -6 -12   33.20   10.80
   4  -6 -12   25.70    5.90
  -4  -6  12   20.70    5.00
   4   6 -11    9.10    7.70
   4   6 -11    3.00    4.00
  -4   6  11    7.10    2.50
   4   6 -11   -2.10    3.20
   4  -6 -11    3.20    7.60
   4  -6 -11    0.20    3.00
   4  -6 -11    2.30    4.30
  -4  -6  11    3.60    3.10
   4   6 -10    3.50    5.70
  -4   6  10    0.30    1.90
   4   6 -10    2.00    3.10
   4   6 -10    0.30    3.30
   4  -6 -10   -6.70    6.70
   4  -6 -10    0.50    3.00
   4  -6 -10   -2.90    3.50
  -4  -6  10   -2.80    2.00
   4   6  -9   -2.50    4.80
   4   6  -9   -4.10    2.70
  -4   6   9    3.10    2.10
   4   6  -9   -2.50    2.70
  -4  -6   9   -2.60    2.90
   4  -6  -9    2.90    6.80
   4  -6  -9   -2.50    2.20
  -4  -6   9   -3.90    1.90
   4  -6  -9    3.60    3.80
   4   6  -8   33.00    6.40
   4   6  -8   31.00    6.50
   4   6  -8   23.50    6.70
  -4   6   8   27.20    5.00
  -4  -6   8   33.40    6.40
  -4  -6   8   38.40    6.50
   4  -6  -8   32.70    6.00
   4  -6  -8   30.40    6.70
   4  -6  -8   46.00    9.80
  -4   6   7    2.10    1.80
   4   6  -7   -0.40    2.60
   4   6  -7   -1.10    2.70
   4   6  -7    2.10    1.80
   4  -6  -7    2.70    2.90
  -4  -6   7    0.30    2.30
   4  -6  -7   -0.60    2.20
  -4  -6   7    2.20    3.10
   4   6  -6   21.10    5.00
   4   6  -6   19.00    4.00
  -4   6   6   12.20    3.00
   4   6  -6    9.50    4.00
   4  -6  -6   17.20    3.70
  -4  -6   6   14.20    3.70
   4  -6  -6   10.00    3.50
  -4  -6   6   13.40    4.10
  -4   6   5    0.30    1.50
   4   6  -5    4.20    2.80
   4   6  -5    1.10    2.20
   4  -6  -5   -0.20    2.00
  -4  -6   5   -2.30    2.10
  -4  -6   5   -0.40    1.60
  -4   6   4    4.70    1.90
   4   6  -4    5.50    2.50
   4   6  -4   -0.60    2.20
   4  -6  -4    5.00    2.60
   4  -6  -4    5.40    1.20
  -4  -6   4    7.70    2.90
  -4  -6   4    3.30    1.50
  -4  -6   4    2.00    1.90
   4   6  -3    1.60    1.20
   4   6  -3    6.40    2.90
   4   6  -3    3.80    2.30
  -4   6   3    1.70    1.70
  -4  -6   3    4.30    2.60
  -4  -6   3    2.70    2.00
   4  -6  -3    2.30    2.00
   4  -6  -3    0.00    1.10
  -4  -6   3    4.00    1.40
   4   6  -2   70.89   11.00
   4   6  -2   76.39   10.40
  -4   6   2   80.39    9.40
   4   6  -2   75.69    9.20
  -4  -6   2   83.49   10.90
  -4  -6   2   82.49    9.20
   4  -6  -2   70.19    9.50
  -4  -6   2   69.79   10.00
   4  -6  -2   79.29    9.30
   4   6  -1  461.85   51.99
  -4   6   1  475.95   51.39
   4   6  -1  453.95   51.19
   4   6  -1  445.26   52.19
   4  -6  -1  455.15   51.19
  -4  -6   1  464.35   51.99
  -4  -6   1  467.15   51.09
  -4  -6   1  468.15   51.79
   4  -6  -1  477.95   51.49
  -4   6   0   28.30    4.70
   4   6   0   31.80    5.80
   4   6   0   35.50    5.00
   4   6   0   33.00    6.10
  -4  -6   0   27.20    5.50
  -4  -6   0   37.00    4.60
  -4  -6   0   45.00    5.90
   4  -6   0   37.50    5.10
  -4  -6   0   35.60    5.10
   4  -6   0   33.60    5.20
  -4   6  -1    1.00    2.10
  -4   6  -1    1.30    1.30
   4   6   1    1.10    2.10
   4   6   1    4.20    2.20
   4  -6   1    1.90    1.90
  -4  -6  -1    1.60    1.70
  -4  -6  -1    0.30    1.60
   4  -6   1    1.10    1.30
  -4   6  -2    4.40    2.80
  -4   6  -2    9.10    2.00
   4   6   2    7.40    2.90
   4   6   2    5.60    2.40
  -4  -6  -2   16.30    3.20
   4  -6   2    8.70    2.30
  -4  -6  -2    2.70    2.20
   4  -6   2    7.50    2.40
  -4   6  -3   -0.30    1.40
  -4   6  -3    4.00    2.50
   4   6   3    0.20    1.70
  -4  -6  -3   -2.20    1.40
  -4  -6  -3   -3.40    1.70
   4  -6   3   -0.80    1.60
   4  -6   3    1.20    1.60
  -4   6  -4   53.49    9.30
  -4   6  -4   52.89    7.70
   4   6   4   54.49    8.20
  -4  -6  -4   65.69    8.00
   4  -6   4   61.79    8.20
   4  -6   4   66.69    8.70
  -4  -6  -4   56.09    8.70
  -4   6  -5    1.50    2.80
  -4   6  -5    0.60    4.40
  -4   6  -5    4.70    2.20
   4   6   5    8.90    2.70
  -4   6  -5    2.90    1.90
   4  -6   5   10.50    3.10
  -4  -6  -5    3.80    3.00
   4  -6   5    7.60    2.50
  -4   6  -6    0.30    1.50
  -4   6  -6   -1.60    3.90
  -4   6  -6    0.20    2.60
   4   6   6   -1.30    1.40
  -4   6  -6    1.20    1.80
  -4   6  -6    1.10    1.70
   4  -6   6   -0.90    1.80
   4  -6   6    0.10    2.10
  -4  -6  -6   -0.60    2.90
  -4   6  -7   24.00    4.30
   4   6   7   19.20    3.70
  -4   6  -7   14.60    4.00
  -4   6  -7    8.50    3.20
  -4   6  -7   10.50    6.20
  -4   6  -7    8.00    4.30
  -4  -6  -7   15.60    4.80
   4  -6   7   16.60    4.00
   4  -6   7   17.20    3.70
  -4   6  -8   -1.20    2.60
  -4   6  -8    4.20    5.10
  -4   6  -8   10.50    4.40
  -4   6  -8    3.80    3.00
  -4   6  -8    3.70    2.70
   4  -6   8    5.00    2.80
  -4  -6  -8    4.80    2.50
  -4  -6  -8    6.90    3.80
   4  -6   8    4.90    2.60
  -4   6  -9   13.20    7.30
  -4   6  -9    6.40    3.50
  -4   6  -9    7.40    3.50
  -4   6  -9    4.90    4.20
  -4  -6  -9    9.00    4.60
  -4  -6  -9   14.10    3.70
   4  -6   9    8.20    3.00
  -4   6 -10    2.70    3.70
  -4   6 -10    4.80    3.90
  -4   6 -10    5.80    6.60
   4  -6  10    4.60    2.60
  -4  -6 -10    4.80    2.80
  -4  -6 -10    5.70    4.20
  -4  -6 -10    1.70   11.60
  -4   6 -11   17.00    6.10
  -4   6 -11   33.00    9.30
  -4  -6 -11   32.40   15.20
  -4  -6 -11   19.90    4.70
   4  -6  11   16.60    4.00
  -4  -6 -11   27.00    6.80
  -4   6 -12   40.00    9.40
  -4  -6 -12   50.99   10.10
  -4  -6 -12   58.59    8.60
  -4   6 -13   10.60    5.90
  -4  -6 -13   21.80    5.00
   4  -6  13   10.90    3.30
   4   7 -13   23.50    7.10
   4   7 -13    8.50    8.80
   4  -7 -13   18.90    5.40
  -4  -7  13   16.10    4.60
   4   7 -12    7.50    8.30
   4   7 -12   15.60    5.80
   4  -7 -12    3.30    3.90
  -4  -7  12    3.50    3.30
   4   7 -11   57.49   11.50
   4   7 -11   56.29   15.20
  -4   7  11   58.49    8.40
   4  -7 -11   57.09    9.50
  -4  -7  11   58.89    9.40
  -4   7  10   12.20    3.30
   4   7 -10    2.20    3.90
   4   7 -10   16.40    9.00
  -4  -7  10    4.10    3.60
   4  -7 -10   16.10    4.70
   4   7  -9   -1.40    4.50
  -4   7   9    3.30    2.50
   4   7  -9   -1.10    3.30
   4  -7  -9   -1.40    2.60
  -4  -7   9    1.80    3.00
  -4  -7   9    0.00    3.10
  -4   7   8    9.50    2.80
   4   7  -8    3.60    3.90
   4   7  -8    6.90    3.90
   4  -7  -8    7.00    4.20
  -4  -7   8    2.70    3.10
  -4  -7   8    0.30    3.40
   4  -7  -8    8.80    3.40
   4   7  -7    2.50    3.50
   4   7  -7   -1.00    3.00
  -4   7   7    2.20    1.90
   4  -7  -7    4.10    3.00
   4  -7  -7   -0.80    3.30
  -4  -7   7   -2.10    2.20
  -4  -7   7   -0.30    3.10
   4   7  -6   11.30    4.50
   4   7  -6   12.20    3.70
   4   7  -6   11.00    4.80
  -4   7   6    3.80    2.20
  -4  -7   6    6.20    3.20
  -4  -7   6   11.00    3.80
   4  -7  -6    6.70    3.30
  -4   7   5   -1.20    1.80
   4   7  -5    3.70    3.50
   4   7  -5   -1.00    2.30
  -4  -7   5   -3.80    2.10
   4  -7  -5    2.10    2.80
  -4  -7   5   -0.40    2.20
   4   7  -4   14.90    4.10
   4   7  -4   14.70    5.00
  -4   7   4    9.00    2.80
   4  -7  -4   13.50    2.40
  -4  -7   4    9.70    3.80
  -4  -7   4    9.90    3.30
   4  -7  -4   15.20    4.10
   4   7  -3  114.89   13.40
   4   7  -3   99.29   12.10
   4   7  -3  116.19   15.10
  -4   7   3  102.19   12.50
  -4  -7   3  109.39   14.20
   4  -7  -3   96.99   12.10
   4  -7  -3  103.99   13.00
  -4  -7   3  104.79   13.60
   4   7  -2   10.40    2.40
   4   7  -2   13.50    3.70
  -4   7   2    7.80    2.60
   4   7  -2   14.70    4.50
   4  -7  -2    9.50    2.40
  -4  -7   2    7.30    3.00
  -4  -7   2    3.00    3.00
   4  -7  -2   14.60    3.20
  -4   7   1   37.70    5.50
   4   7  -1   42.00    5.60
   4   7  -1   35.40    6.60
   4   7  -1   34.80    6.80
   4  -7  -1   54.09    6.30
   4  -7  -1   27.20    5.40
  -4  -7   1   41.20    5.60
  -4  -7   1   32.20    5.90
  -4  -7   1   37.50    6.50
   4   7   0   14.30    3.60
  -4   7   0    9.80    2.50
   4   7   0    6.30    2.30
   4   7   0    8.00    3.60
   4  -7   0    9.70    2.40
  -4  -7   0    6.30    3.20
   4  -7   0    9.10    2.70
  -4  -7   0   10.70    3.60
   4  -7   0   12.30    2.90
   4   7   1   -0.20    2.40
  -4   7  -1    3.90    1.80
   4   7   1    5.80    2.20
  -4   7  -1    4.10    3.20
   4   7   1    4.70    3.20
   4  -7   1    7.30    2.60
  -4  -7  -1    9.00    2.60
   4  -7   1    7.10    2.30
  -4  -7  -1    6.60    2.70
   4   7   2  103.49   14.30
  -4   7  -2  121.29   14.60
   4   7   2   88.99   14.30
  -4   7  -2  110.79   13.10
   4  -7   2  116.69   13.40
  -4  -7  -2  116.29   13.70
   4  -7   2  105.79   13.70
  -4  -7  -2  109.89   13.50
   4   7   3  241.58   27.00
  -4   7  -3  229.38   26.30
  -4   7  -3  226.08   27.60
  -4  -7  -3  245.38   26.60
  -4  -7  -3  212.88   26.70
   4  -7   3  234.48   26.60
   4  -7   3  229.48   26.90
  -4   7  -4   46.30    9.00
  -4   7  -4   61.79    7.70
   4   7   4   47.40    7.90
  -4  -7  -4   53.79    7.50
   4  -7   4   50.79    8.20
  -4  -7  -4   65.89    8.80
   4  -7   4   55.69    7.90
  -4   7  -5    3.30    2.10
  -4   7  -5    2.10    1.80
  -4   7  -5    6.40    3.70
   4   7   5    5.00    2.40
   4  -7   5   -1.10    1.90
  -4  -7  -5    1.50    2.80
   4  -7   5    3.50    2.70
   4   7   6   24.30    4.40
  -4   7  -6   22.80    4.70
  -4   7  -6   13.40    5.10
  -4   7  -6   23.40    4.50
  -4   7  -6   17.20    7.60
   4  -7   6   17.60    4.10
   4  -7   6   23.80    5.00
  -4  -7  -6   17.90    5.00
  -4   7  -7   52.19   10.60
  -4   7  -7   72.29   10.10
  -4   7  -7   71.79    9.60
   4   7   7   75.59    9.40
  -4   7  -7   55.29    9.30
  -4   7  -7   66.09   14.90
   4  -7   7   67.89    9.80
  -4  -7  -7   64.49   10.30
   4  -7   7   64.19    9.30
  -4   7  -8    7.10    3.80
  -4   7  -8   17.00    4.00
  -4   7  -8    9.70    4.60
  -4   7  -8    8.40    6.80
  -4  -7  -8   10.30    4.60
   4  -7   8    3.00    2.80
   4  -7   8   10.00    3.60
  -4   7  -9   16.00    6.10
  -4   7  -9   22.00    5.30
   4  -7   9   27.00    5.00
   4  -7   9   17.30    4.90
  -4  -7  -9   19.90    6.10
  -4   7 -10    0.40    3.50
  -4   7 -10   -1.40    3.40
  -4  -7 -10    0.60    4.00
   4  -7  10    2.80    2.50
  -4   7 -11    1.60    4.40
   4  -7  11    0.10    2.40
  -4  -7 -11   -1.30    4.20
  -4   7 -12   13.40    6.40
  -4  -7 -12   28.60    7.40
   4  -7  12   18.10    4.10
   4   8 -12   36.10   13.30
  -4   8  12   36.30    7.40
   4   8 -12   17.80    6.90
  -4  -8  12   38.70    6.70
   4   8 -11   28.10   11.40
   4   8 -11   32.90    8.80
  -4   8  11   41.10    6.30
  -4  -8  11   35.00    6.80
  -4   8  10   -1.10    2.20
   4   8 -10   -0.40    3.60
   4   8 -10   -1.40    5.90
  -4  -8  10    0.70    3.60
  -4  -8  10   -3.20    2.70
   4   8  -9   -1.40    5.40
   4   8  -9   -0.60    3.90
  -4   8   9   -0.50    2.10
  -4  -8   9    0.30    3.10
  -4  -8   9    1.20    3.40
   4   8  -8    5.90    4.00
   4   8  -8    0.00    3.90
  -4   8   8    2.60    2.30
  -4  -8   8    8.10    3.60
  -4  -8   8    5.30    3.90
   4   8  -7    2.80    4.40
   4   8  -7    2.60    3.80
  -4   8   7    2.90    2.30
  -4  -8   7   -0.40    3.00
  -4  -8   7    4.70    3.80
   4   8  -6    5.90    4.10
   4   8  -6   10.50    4.10
   4   8  -6    7.50    4.80
  -4   8   6    3.80    2.50
  -4  -8   6    7.60    3.50
  -4  -8   6    1.50    3.50
   4   8  -5    0.50    3.20
   4   8  -5   -1.70    2.60
  -4   8   5   -2.40    1.80
  -4  -8   5    1.40    2.90
   4  -8  -5    2.70    3.30
  -4  -8   5   -0.20    2.90
   4   8  -4   -2.90    2.50
  -4   8   4    0.60    2.10
   4   8  -4    0.10    3.20
  -4  -8   4    1.10    2.40
  -4  -8   4    2.90    3.30
   4  -8  -4   -0.50    3.00
  -4   8   3  204.68   26.00
   4   8  -3  209.68   27.30
   4   8  -3  227.28   26.90
  -4  -8   3  232.88   26.70
   4  -8  -3  255.67   26.90
  -4  -8   3  245.58   27.30
   4  -8  -3  221.88   25.70
   4   8  -2  128.39   17.10
   4   8  -2  123.89   16.20
  -4   8   2  120.19   14.50
   4   8  -2  117.89   14.10
  -4  -8   2  118.99   15.50
  -4  -8   2   88.09   15.50
   4  -8  -2  118.29   14.20
   4  -8  -2  137.39   15.20
   4   8  -1   45.40    8.20
   4   8  -1   40.40    6.10
   4   8  -1   44.80    7.60
  -4   8   1   40.10    6.30
   4  -8  -1   49.90    7.10
  -4  -8   1   46.40    7.90
   4  -8  -1   36.50    6.30
  -4  -8   1   39.50    7.50
   4   8   0    0.80    3.30
   4   8   0    0.50    1.80
  -4   8   0    0.70    2.00
   4   8   0   10.30    3.70
   4  -8   0    1.80    2.40
   4  -8   0    5.20    2.40
  -4  -8   0    1.60    2.80
  -4   8  -1    3.20    3.10
  -4   8  -1   -2.20    1.50
   4   8   1    2.80    2.90
   4   8   1   -3.10    3.00
   4   8   1    0.30    1.90
   4  -8   1    3.00    2.30
   4  -8   1    2.90    2.60
   4  -8   1   -0.50    1.50
  -4  -8  -1    0.00    2.30
  -4   8  -2   41.20    6.40
  -4   8  -2   43.90    8.30
   4   8   2   55.59    7.90
   4   8   2   53.69    7.20
  -4  -8  -2   37.60    6.60
   4  -8   2   49.10    7.40
   4  -8   2   34.20    6.40
  -4  -8  -2   51.79    7.40
   4   8   3    4.50    2.70
  -4   8  -3    9.20    2.50
  -4   8  -3    8.80    4.30
   4   8   3    8.00    3.40
  -4  -8  -3    6.50    2.90
   4  -8   3    5.40    3.00
   4  -8   3   10.30    3.10
  -4  -8  -3    9.50    2.90
   4   8   4    2.60    2.60
  -4   8  -4   -0.20    3.10
  -4   8  -4    1.90    2.10
   4   8   4    4.80    2.60
   4  -8   4    1.00    2.60
  -4  -8  -4   -0.10    2.40
   4  -8   4    3.10    2.30
  -4   8  -5    0.90    2.40
  -4   8  -5    0.00    2.60
   4   8   5    1.40    2.30
  -4   8  -5    0.50    2.00
   4  -8   5    2.40    2.80
  -4  -8  -5   -1.60    2.50
   4  -8   5   -2.40    1.80
  -4   8  -6    1.60    2.60
   4   8   6   -0.80    2.10
  -4   8  -6   -3.40    2.00
  -4   8  -6    1.60    3.20
   4  -8   6    0.90    2.60
  -4  -8  -6   -4.70    2.50
   4  -8   6    4.10    2.60
   4   8   7    3.40    2.30
  -4   8  -7   -2.40    2.30
  -4   8  -7   -3.10    3.50
   4  -8   7    0.00    2.20
   4  -8   7   -3.90    2.40
  -4  -8  -7   -4.20    2.80
  -4   8  -8   26.40    7.50
  -4   8  -8   31.20    6.20
   4  -8   8   29.60    5.40
  -4  -8  -8   22.70    6.40
   4  -8   8   27.10    6.00
  -4   8  -9   -1.10    3.30
  -4   8  -9   -0.70    3.50
   4  -8   9    1.40    2.60
   4  -8   9    0.30    3.20
  -4  -8  -9    3.60    4.10
  -4   8 -10    7.10    5.20
   4  -8  10    5.40    3.30
  -4  -8 -10   14.70    5.90
   4   9 -11    2.40    5.50
  -4   9  11    6.80    3.20
   4   9 -11   -0.40    6.60
  -4  -9  11    3.30    4.00
  -4   9  10   -2.20    2.50
   4   9 -10   -3.50    4.70
   4   9 -10   -1.80    6.40
  -4  -9  10    2.90    3.30
  -4  -9  10   10.80    4.60
  -4   9   9    4.70    2.80
   4   9  -9    3.40    7.10
   4   9  -9    0.70    4.70
  -4  -9   9    2.80    3.40
  -4  -9   9    8.20    4.30
   4   9  -8    9.30    5.30
  -4   9   8    3.10    2.50
  -4  -9   8    0.20    2.80
  -4  -9   8   -3.10    3.40
   4   9  -7  103.59   15.40
   4   9  -7   93.89   16.50
  -4   9   7  114.29   13.80
  -4  -9   7  106.19   15.10
  -4  -9   7   94.69   14.10
   4   9  -6    3.50    3.90
  -4   9   6   -2.10    2.10
   4   9  -6    3.70    3.70
   4   9  -6   10.80    4.70
  -4  -9   6    9.50    3.70
  -4  -9   6    5.10    3.80
   4   9  -5    6.30    4.10
  -4   9   5    3.20    2.50
   4   9  -5    0.20    3.20
   4   9  -5   -0.10    4.10
  -4  -9   5   -0.40    3.30
  -4  -9   5    4.70    3.30
  -4   9   4    0.20    2.00
   4   9  -4    5.00    3.70
   4   9  -4   -3.00    3.10
  -4  -9   4    2.70    3.00
  -4  -9   4    1.10    3.20
   4   9  -3   -1.10    3.00
   4   9  -3    1.30    3.80
  -4   9   3   -2.60    2.00
   4  -9  -3   -1.70    1.40
  -4  -9   3    2.30    3.30
  -4  -9   3    4.00    3.30
   4   9  -2  280.07   31.50
   4   9  -2  275.17   33.10
   4   9  -2  289.07   32.50
  -4   9   2  260.87   31.40
   4  -9  -2  286.67   31.30
   4  -9  -2  248.78   32.00
  -4  -9   2  284.77   32.50
  -4   9   1    1.60    2.20
   4   9  -1   -1.20    2.50
   4   9  -1   -1.70    3.70
   4   9  -1    1.00    2.10
   4  -9  -1   -0.10    2.60
   4  -9  -1   -3.50    1.80
  -4  -9   1   -1.40    2.90
   4   9   0    8.60    4.10
   4   9   0   14.30    5.20
  -4   9   0   10.00    3.00
   4   9   0   10.80    3.20
   4  -9   0   17.50    4.30
   4  -9   0   11.20    3.50
  -4  -9   0    7.10    3.60
   4   9   1   -2.80    1.90
  -4   9  -1   -3.20    1.60
   4   9   1    0.50    2.80
   4   9   1   -6.10    2.90
   4  -9   1    2.10    2.60
  -4  -9  -1   -2.50    2.20
   4  -9   1   -2.00    2.10
   4   9   2   -3.00    2.60
  -4   9  -2    3.30    2.30
   4   9   2    7.90    3.00
   4  -9   2    6.90    3.30
  -4  -9  -2    9.40    3.20
   4  -9   2    3.70    3.50
   4  -9   2   11.60    5.00
  -4   9  -3   55.09    7.90
   4   9   3   62.99    8.60
   4   9   3   54.99    8.90
  -4   9  -3   60.09   12.00
   4  -9   3   38.50    8.00
  -4  -9  -3   57.09    8.60
   4  -9   3   54.59    8.10
  -4  -9  -3   54.89    8.00
  -4   9  -4   16.00    3.60
  -4   9  -4   17.00    5.60
   4   9   4    5.60    3.30
   4   9   4   16.50    4.20
   4  -9   4   16.00    4.40
   4  -9   4    6.80    3.10
  -4  -9  -4    5.20    3.40
  -4   9  -5    1.50    2.50
  -4   9  -5   10.00    4.60
   4   9   5    2.60    2.90
   4   9   5    2.90    2.70
   4  -9   5    2.70    3.00
   4  -9   5    3.40    2.50
  -4  -9  -5    0.20    2.90
  -4   9  -6   -1.30    2.40
   4   9   6    0.00    2.40
  -4   9  -6   -0.30    3.50
   4   9   6   -8.10    2.30
   4  -9   6   -2.20    2.70
   4  -9   6   -0.30    2.20
  -4  -9  -6    1.90    3.40
   4   9   7   32.10    5.90
   4   9   7   28.80    5.20
  -4   9  -7   13.10    5.90
  -4   9  -7   23.00    5.40
   4  -9   7   36.30    6.40
   4  -9   7   22.20    4.90
  -4  -9  -7   37.30    7.00
   4   9   8   29.20    6.20
  -4   9  -8   31.60    7.80
  -4   9  -8   40.20    6.90
   4  -9   8   31.10    6.40
   4  -9   8   29.30    5.80
  -4  -9  -8   30.70    6.90
   4   9   9    4.00    3.70
  -4   9  -9   -0.40    4.30
   4  -9   9    5.90    2.90
  -4  -9  -9    6.20    4.20
   4  -9   9    4.00    3.80
   4  10  -9    2.40    5.70
  -4  10   9   -1.80    2.70
   4  10  -9   -3.10    6.50
  -4 -10   9    2.50    3.60
  -4 -10   9   -2.20    4.30
  -4  10   8    3.20    2.90
   4  10  -8    1.90    4.90
  -4 -10   8    8.50    4.10
  -4 -10   8    0.40    3.80
   4  10  -7    1.70    4.60
  -4  10   7    6.20    2.90
  -4 -10   7    2.10    3.80
  -4 -10   7    2.80    3.60
   4  10  -6    7.60    5.60
  -4  10   6    8.40    3.20
   4  10  -6   16.30    5.30
  -4 -10   6    2.30    3.90
  -4 -10   6    5.60    3.80
   4  10  -5    1.80    4.10
   4  10  -5    1.50    3.50
  -4  10   5    0.00    2.40
   4  10  -5    0.00    4.60
  -4 -10   5   -2.50    3.00
  -4 -10   5    3.50    3.80
  -4  10   4    6.50    3.00
   4  10  -4    4.30    4.50
   4  10  -4    2.10    3.90
  -4 -10   4    2.50    3.60
  -4 -10   4   -0.10    3.20
   4  10  -3   -7.50    2.90
   4  10  -3    3.50    4.40
  -4  10   3    0.40    2.40
  -4 -10   3    3.70    3.70
   4  10  -2   31.50    7.50
   4  10  -2   29.40    6.70
  -4  10   2   27.20    5.40
  -4 -10   2   38.00    7.10
   4 -10  -2   30.80    5.30
   4  10  -1    1.90    2.70
   4  10  -1    1.80    4.20
   4  10  -1   -0.40    3.20
  -4  10   1    2.20    2.30
  -4 -10   1    0.60    3.10
   4 -10  -1   -1.50    2.10
   4  10   0   -2.10    2.20
  -4  10   0    0.90    2.20
   4  10   0    1.30    3.30
   4  10   0    3.20    4.40
  -4 -10   0    3.70    3.40
   4 -10   0   -1.90    2.30
   4  10   1    2.00    2.50
   4  10   1    2.10    3.40
  -4  10  -1    2.90    2.60
  -4 -10  -1    3.30    2.70
   4 -10   1    4.50    3.50
   4 -10   1   -1.90    2.20
   4  10   2   51.09    7.70
  -4  10  -2   31.90    6.80
   4  10   2   47.30    8.20
  -4 -10  -2   48.60    7.70
   4 -10   2   69.59    8.80
   4 -10   2   43.10    7.60
   4  10   3  152.38   19.00
  -4  10  -3  136.49   18.70
   4  10   3  147.79   19.40
   4 -10   3  155.18   19.50
   4 -10   3  201.38   19.80
   4  10   4   -4.00    2.60
  -4  10  -4    2.20    2.80
   4  10   4   -2.10    2.50
   4 -10   4   -0.50    3.00
   4 -10   4   -1.70    3.80
   4 -10   4    5.60    3.00
   4  10   5    2.30    3.00
  -4  10  -5    0.10    2.70
   4  10   5    2.70    3.00
   4 -10   5    3.60    2.90
  -4 -10  -5    1.20    3.90
   4 -10   5    1.10    3.10
   4  10   6   -1.60    2.50
   4  10   6    0.90    3.10
  -4  10  -6    3.40    3.50
   4 -10   6    6.80    3.10
  -4 -10  -6   -0.70    3.10
   4 -10   6    0.70    3.20
  -4  10  -7   26.20    6.00
   4  10   7   25.40    5.70
   4 -10   7   16.00    5.30
  -4 -10  -7   24.80    5.90
   4 -10   7   23.20    4.90
  -4  11   6    4.10    3.40
   4  11  -6    7.90    6.00
  -4 -11   6   -2.20    4.00
  -4 -11   6   -2.30    3.90
  -4  11   5    0.00    2.40
   4  11  -5   -6.50    4.10
  -4 -11   5    4.40    4.20
  -4  11   4    4.10    3.10
   4  11  -4    1.60    5.00
   4  11  -4    7.40    4.70
  -4 -11   4    3.00    4.00
  -4  11   3    0.90    2.80
   4  11  -3    9.40    5.80
   4  11  -3   -5.40    3.70
  -4 -11   3    5.30    3.90
  -4  11   2   23.30    5.00
   4  11  -2   24.50    6.10
   4  11  -2   12.00    6.40
  -4 -11   2   26.70    6.00
   4  11  -1   31.40    7.30
  -4  11   1   18.50    4.30
   4  11  -1   16.80    5.40
   4 -11  -1   13.50    3.90
  -4 -11   1   17.00    5.20
  -4  11   0   -3.60    2.30
   4  11   0   -1.60    3.60
   4  11   0    6.60    5.20
  -4 -11   0    0.10    3.20
   4 -11   0   -1.00    2.20
   4  11   1    2.70    3.90
  -4  11  -1    5.50    3.00
   4  11   1    1.40    3.00
   4 -11   1    5.50    3.10
  -4 -11  -1    3.60    3.50
  -4  11  -2   23.90    5.20
   4  11   2   33.10    5.80
   4  11   2   29.70    6.40
   4 -11   2   23.30    5.50
   4  11   3    0.90    3.20
   4  11   3   -0.30    3.30
  -4  11  -3    5.20    3.30
   4 -11   3    7.50    3.60
   4  11   4    8.60    4.10
   4  11   4    7.00    3.60
  -4  11  -4    8.30    3.60
   4 -11   4    7.60    4.00
   5   0 -16   16.70    7.60
   5   0 -16   18.20    9.00
   5   0 -16   17.00    7.60
   5   0 -15   -6.10    2.90
   5   0 -15   -1.30    4.30
   5   0 -15    0.60    5.80
   5   0 -15    0.70    5.10
   5   0 -14   -1.10    4.40
   5   0 -14   -1.90    4.00
   5   0 -14    0.00    2.90
   5   0 -14    2.70    4.50
   5   0 -13    1.10    4.60
   5   0 -13   -3.80    3.50
   5   0 -13   -1.50    2.50
   5   0 -13   -1.30    3.70
   5   0 -12    2.60    3.60
   5   0 -12    0.00    3.60
   5   0 -12    2.70    2.40
   5   0 -12   -2.90    3.50
   5   0 -11   -1.40    3.20
   5   0 -11   -2.30    2.60
   5   0 -11    0.20    3.10
   5   0 -11   -0.70    2.10
   5   0 -10    6.20    3.40
   5   0 -10    6.30    2.70
   5   0 -10    3.10    3.20
   5   0 -10    4.00    3.90
   5   0  -9    1.40    1.40
  -5   0   9   -0.40    1.10
   5   0  -9    0.20    2.50
   5   0  -9    1.80    1.20
   5   0  -9   -2.50    2.20
  -5   0   9   -1.10    0.90
   5   0  -9    0.40    2.70
   5   0  -8   37.20    5.90
   5   0  -8   39.30    5.00
  -5   0   8   37.40    5.10
   5   0  -8   29.60    6.30
   5   0  -8   44.80    7.00
   5   0  -8   39.50    8.40
  -5   0   8   37.30    5.00
  -5   0   7   -0.90    0.80
   5   0  -7    0.40    0.80
   5   0  -7    0.90    1.20
   5   0  -7    3.00    2.20
   5   0  -7   -1.70    2.00
   5   0  -7    0.80    2.10
  -5   0   7    0.50    0.90
   5   0  -6  783.32   78.39
   5   0  -6  689.83   78.09
   5   0  -6  646.04   79.09
  -5   0   6  626.24   77.29
   5   0  -6  773.42   77.09
   5   0  -6  725.23   77.19
   5   0  -5    1.30    1.60
   5   0  -5    0.80    1.60
   5   0  -5    0.00    0.50
   5   0  -5    0.10    0.90
  -5   0   5    0.70    0.80
   5   0  -5   -0.20    1.30
   5   0  -4    0.40    1.30
  -5   0   4    1.50    0.80
   5   0  -4   -0.60    0.80
   5   0  -4    0.70    1.20
  -5   0   3    0.70    0.70
   5   0  -3   -1.10    1.00
   5   0  -3   -0.10    0.80
   5   0  -3   -0.60    1.00
   5   0  -2   83.09    8.90
  -5   0   2   68.99    8.50
   5   0  -1    0.60    0.80
  -5   0   1    0.00    0.40
  -5   0   1   -0.60    0.50
  -5   0   0  757.52   88.09
   5   0   0  812.92   88.19
  -5   0   0  845.62   87.99
   5   0   0  810.52   88.29
   5   0   1   -0.20    0.70
  -5   0  -1    0.90    0.80
  -5   0  -1    0.10    0.40
  -5   0  -1   -0.50    0.80
   5   0   1    0.30    0.50
  -5   0  -1   -0.40    0.70
  -5   0  -2  111.69   12.60
  -5   0  -2  105.49   12.40
  -5   0  -2  108.19   12.60
  -5   0  -3    0.40    1.00
  -5   0  -3   -0.40    1.00
  -5   0  -3    0.20    1.00
   5   0   3   -1.30    0.90
   5   0   3    0.10    0.80
  -5   0  -3    0.30    1.10
  -5   0  -4 3091.39  343.27
  -5   0  -4 2659.93  342.57
  -5   0  -4 3109.39  342.77
  -5   0  -4 3226.68  342.97
   5   0   4 3238.58  342.37
   5   0   4 3474.15  342.67
  -5   0  -4 3226.68  343.07
   5   0   5   -1.10    0.90
  -5   0  -5   -1.70    1.40
  -5   0  -5    1.80    1.70
  -5   0  -5    0.30    1.50
   5   0   5    2.60    1.60
  -5   0  -5   -2.80    1.20
  -5   0  -5    1.60    2.40
  -5   0  -5    1.90    1.70
  -5   0  -6  176.58   18.60
  -5   0  -6  159.08   18.10
  -5   0  -6  149.09   18.40
   5   0   6  155.58   17.70
  -5   0  -6  151.18   19.50
  -5   0  -6  169.38   18.80
  -5   0  -6  149.19   18.70
  -5   0  -7    1.70    3.00
  -5   0  -7    2.50    2.30
  -5   0  -7   -4.00    1.80
   5   0   7    1.20    1.30
  -5   0  -7    0.60    2.00
  -5   0  -7   -2.20    1.80
  -5   0  -7   -0.20    1.90
  -5   0  -8   61.89    9.10
  -5   0  -8   63.59   11.60
  -5   0  -8   59.09    8.70
  -5   0  -8   73.29   10.50
  -5   0  -8   68.49   10.00
   5   0   8   58.09    7.60
  -5   0  -9   -4.10    2.30
  -5   0  -9   -1.40    2.20
  -5   0  -9    3.70    3.10
  -5   0  -9   -0.70    3.90
   5   0   9   -0.70    1.20
  -5   0  -9   -0.90    3.10
  -5   0 -10   15.20    4.70
   5   0  10   12.40    2.50
  -5   0 -10   13.50    6.60
  -5   0 -10   16.10    5.10
  -5   0 -10   15.90    3.90
  -5   0 -10    5.90    3.80
  -5   0 -11   -2.30    4.60
  -5   0 -11   -0.90    3.70
   5   0  11   -1.00    1.20
  -5   0 -11    1.20    4.00
  -5   0 -11    2.20    3.30
  -5   0 -11   -4.10    2.10
  -5   0 -12    7.90    3.60
  -5   0 -12    2.10    4.20
  -5   0 -12    4.10    4.90
  -5   0 -12    5.40    6.40
  -5   0 -13    4.70    4.70
  -5   0 -13   -4.30    6.80
  -5   0 -13   -1.00    4.70
  -5   0 -14   17.20    6.60
  -5   0 -14    6.40    8.70
  -5   0 -14   17.70    6.40
   5   1 -16    8.30    7.10
   5   1 -16    1.00    6.30
   5   1 -16    7.00    6.40
   5   1 -16    2.50    4.10
   5  -1 -16   12.10    8.50
   5  -1 -16   17.40    6.80
   5  -1 -16   12.40    6.40
   5   1 -15   14.50    6.70
   5   1 -15   11.50    5.00
   5   1 -15   17.80    8.60
   5   1 -15   15.80    7.00
   5  -1 -15   40.40    8.50
   5  -1 -15   16.90    8.20
   5  -1 -15   22.60    7.40
   5   1 -14   -0.40    4.40
   5   1 -14   -3.30    4.30
   5   1 -14   -2.00    4.50
   5   1 -14    0.20    2.60
   5  -1 -14    3.50    5.10
   5  -1 -14   -1.70    4.80
   5  -1 -14    1.90    3.60
   5  -1 -14    3.40    4.80
   5   1 -13    0.10    2.60
   5   1 -13    3.30    5.40
   5   1 -13    1.20    4.60
   5   1 -13   -3.70    3.10
   5  -1 -13   -1.50    2.40
   5  -1 -13    0.50    4.20
   5  -1 -13    4.40    4.80
   5  -1 -13   -0.80    4.30
   5   1 -12    7.20    4.10
   5   1 -12    5.60    3.00
   5   1 -12    0.20    4.00
   5   1 -12    0.60    4.40
   5  -1 -12   -1.70    3.50
   5  -1 -12   -2.40    2.30
   5  -1 -12   -0.70    3.40
   5  -1 -12    4.50    4.60
   5   1 -11    4.20    2.90
   5   1 -11   14.90    4.50
   5   1 -11    9.70    4.60
   5   1 -11   10.50    6.10
   5  -1 -11    8.30    5.00
   5  -1 -11    7.30    2.90
   5  -1 -11    3.50    3.30
   5  -1 -11    7.30    4.00
  -5  -1  11    6.70    3.30
   5   1 -10  331.97   44.30
   5   1 -10  301.87   41.20
   5   1 -10  420.96   42.20
   5   1 -10  378.46   42.10
   5  -1 -10  390.56   42.10
   5  -1 -10  373.86   42.00
  -5  -1  10  388.46   40.40
   5  -1 -10  363.36   43.50
   5  -1 -10  356.26   40.80
  -5   1   9    0.90    1.20
   5   1  -9    3.10    3.80
   5   1  -9    6.80    3.20
   5   1  -9    5.60    3.30
   5   1  -9    0.30    1.80
   5  -1  -9    1.00    2.90
   5  -1  -9    2.30    2.50
   5  -1  -9    3.10    3.20
   5  -1  -9    2.50    1.80
  -5  -1   9    2.60    1.40
   5  -1  -9    3.30    1.40
   5  -1  -9    3.90    2.20
  -5  -1   9    6.10    1.90
   5   1  -8    2.20    2.50
  -5   1   8    3.30    1.40
   5   1  -8    4.40    1.50
   5   1  -8    2.10    2.50
   5   1  -8    4.60    3.70
   5   1  -8    4.70    2.10
   5  -1  -8   10.00    3.30
  -5  -1   8    5.10    1.50
   5  -1  -8    6.20    1.90
   5  -1  -8    6.40    2.90
   5  -1  -8    5.50    1.40
   5  -1  -8    2.50    2.70
  -5  -1   8    3.90    1.60
   5  -1  -8    3.10    1.60
   5   1  -7    2.50    2.80
   5   1  -7    2.00    1.30
  -5   1   7    2.00    1.10
   5   1  -7    2.10    1.10
   5   1  -7    1.80    1.90
   5   1  -7    2.50    1.80
   5   1  -7    1.30    2.50
   5  -1  -7    0.90    1.90
  -5  -1   7    4.30    1.30
   5  -1  -7    1.30    1.30
   5  -1  -7    2.20    1.30
   5  -1  -7    3.30    2.50
   5  -1  -7    3.10    2.40
   5  -1  -7    4.00    1.20
  -5  -1   7    2.90    1.20
   5   1  -6  406.16   51.69
  -5   1   6  417.66   50.89
   5   1  -6  457.35   53.29
   5   1  -6  498.45   50.79
   5   1  -6  416.06   51.39
   5   1  -6  485.45   51.09
   5   1  -6  489.05   51.79
   5  -1  -6  477.15   50.99
   5  -1  -6  537.65   51.99
  -5  -1   6  465.85   50.99
  -5  -1   6  459.65   50.99
   5  -1  -6  481.35   52.49
   5  -1  -6  433.96   51.79
   5   1  -5  120.59   13.50
   5   1  -5  110.09   13.90
   5   1  -5  120.79   15.30
  -5   1   5  118.79   13.30
   5   1  -5  112.69   13.70
   5   1  -5  129.89   13.00
   5  -1  -5  109.19   13.90
   5  -1  -5  123.89   13.30
   5  -1  -5   99.99   14.10
   5  -1  -5  115.59   14.00
  -5  -1   5  118.89   13.30
  -5  -1   5  113.69   13.30
  -5   1   4   33.70    4.40
   5   1  -4   36.10    5.30
   5   1  -4   38.00    4.90
   5   1  -4   30.10    4.90
   5  -1  -4   33.90    4.50
   5  -1  -4   36.10    5.30
   5  -1  -4   43.10    5.60
  -5  -1   4   30.40    4.40
   5   1  -3   76.79    8.80
   5   1  -3   74.49    8.40
  -5   1   3   71.49    8.40
   5   1  -3   65.89    8.90
   5  -1  -3   68.19    8.80
   5  -1  -3   71.69    8.80
  -5  -1   3   70.49    8.30
   5  -1  -3   82.39    8.60
   5   1  -2   36.80    4.10
   5   1  -2   32.10    4.70
   5  -1  -2   31.80    4.50
   5  -1  -2   34.80    4.20
  -5  -1   2   31.00    4.00
   5   1  -1  637.24   65.59
   5   1  -1  603.04   66.09
   5   1  -1  561.64   65.99
  -5  -1   1  593.64   65.49
   5  -1  -1  605.64   65.79
  -5  -1   1  597.54   65.59
   5   1   0  621.84   70.29
   5   1   0  659.73   70.19
  -5   1   0  680.53   69.99
  -5  -1   0  590.94   69.79
  -5  -1   0  683.13   69.79
   5  -1   0  590.44   69.99
   5  -1   0  649.34   69.99
  -5   1  -1    0.30    0.80
   5   1   1    0.40    0.70
  -5   1  -1   -0.10    0.30
   5   1   1   -0.50    0.80
  -5   1  -1    1.30    1.10
  -5  -1  -1    1.60    0.70
  -5  -1  -1    0.10    0.30
  -5  -1  -1    1.80    1.10
   5  -1   1    0.70    0.70
  -5  -1  -1   -0.50    0.80
  -5   1  -2  149.09   16.40
  -5   1  -2  136.79   15.80
   5   1   2  155.08   16.20
  -5   1  -2  145.29   16.40
  -5  -1  -2  119.29   16.10
  -5  -1  -2  146.09   16.50
   5  -1   2  157.18   16.40
  -5  -1  -2  150.28   16.10
  -5  -1  -2  137.59   16.50
   5  -1   2  147.59   16.10
   5   1   3  102.19   11.20
  -5   1  -3  102.59   10.80
  -5   1  -3  104.59   11.60
  -5   1  -3   72.09   11.30
  -5   1  -3   92.79   11.60
  -5   1  -3   98.29   11.60
  -5  -1  -3   94.29   11.40
   5  -1   3  101.99   11.20
  -5  -1  -3  103.49   11.70
   5  -1   3   97.29   11.40
  -5  -1  -3   95.49   11.80
  -5  -1  -3  123.59   12.20
  -5  -1  -3   89.59   11.20
  -5   1  -4  605.74   66.09
   5   1   4  620.14   65.59
  -5   1  -4  614.34   66.09
  -5   1  -4  574.74   66.09
  -5   1  -4  524.75   66.69
  -5   1  -4  635.54   65.29
  -5  -1  -4  585.44   66.29
   5  -1   4  600.74   65.69
  -5  -1  -4  568.54   66.19
  -5  -1  -4  585.04   65.89
  -5  -1  -4  676.63   66.39
   5  -1   4  614.64   65.79
  -5  -1  -4  548.95   65.69
  -5   1  -5  146.09   18.00
  -5   1  -5  175.78   18.70
  -5   1  -5  158.98   18.50
   5   1   5  169.88   17.80
  -5   1  -5  132.39   18.40
  -5   1  -5  156.18   18.40
  -5   1  -5  148.89   19.60
  -5  -1  -5  155.48   18.30
  -5  -1  -5  139.19   18.10
   5  -1   5  174.98   17.90
  -5  -1  -5  166.98   18.90
   5  -1   5  171.28   18.10
  -5  -1  -5  165.08   18.80
   5   1   6    2.00    1.10
  -5   1  -6    4.30    2.30
  -5   1  -6    4.20    2.30
  -5   1  -6    5.70    3.60
  -5   1  -6    2.50    2.00
  -5   1  -6    5.20    2.00
  -5   1  -6    3.30    1.90
  -5  -1  -6    3.90    3.00
  -5  -1  -6    6.30    2.10
   5  -1   6    3.50    1.30
  -5  -1  -6    1.10    1.90
  -5  -1  -6    2.20    2.50
  -5  -1  -6    2.60    2.00
   5   1   7    3.10    1.20
  -5   1  -7    2.90    3.60
  -5   1  -7    1.20    2.30
  -5   1  -7    1.00    2.50
  -5   1  -7    0.10    2.10
  -5   1  -7    1.20    2.10
  -5   1  -7    0.70    1.90
   5  -1   7    2.70    1.30
  -5  -1  -7    1.90    2.80
  -5  -1  -7    4.10    2.20
  -5  -1  -7   -0.20    3.30
  -5  -1  -7    3.50    2.40
  -5  -1  -7    5.40    2.90
  -5   1  -8   53.89    8.60
  -5   1  -8   51.19    8.10
  -5   1  -8   50.89    8.20
   5   1   8   49.00    6.60
  -5   1  -8   58.49    8.70
  -5   1  -8   58.19   11.00
  -5   1  -8   36.70    7.10
  -5  -1  -8   61.69    8.00
  -5  -1  -8   51.79    8.10
  -5  -1  -8   52.59    8.70
  -5  -1  -8   59.19    8.20
  -5  -1  -8   45.00    9.40
   5  -1   8   49.99    6.60
  -5   1  -9  147.49   18.50
   5   1   9  131.49   16.00
  -5   1  -9  145.59   17.00
  -5   1  -9  168.18   18.10
  -5   1  -9  128.59   19.60
  -5   1  -9  139.89   19.00
  -5   1  -9  125.39   17.70
  -5  -1  -9  154.68   19.80
  -5  -1  -9  130.29   18.80
  -5  -1  -9  143.59   17.00
  -5  -1  -9  134.69   17.90
   5  -1   9  137.59   16.10
  -5  -1  -9  149.99   17.70
  -5   1 -10    0.30    2.40
   5   1  10    0.90    1.30
  -5   1 -10   -0.20    3.10
  -5   1 -10    4.90    3.40
  -5   1 -10   -3.70    2.70
  -5   1 -10    1.50    4.90
  -5  -1 -10   -3.10    2.40
  -5  -1 -10    2.50    3.90
  -5  -1 -10   -3.50    2.50
  -5  -1 -10   -3.80    3.20
   5  -1  10   -2.70    1.30
  -5  -1 -10   -3.20    4.70
  -5   1 -11    4.50    4.10
  -5   1 -11    9.00    6.00
  -5   1 -11    3.90    3.10
  -5   1 -11    7.50    4.70
  -5   1 -11   12.10    5.00
  -5  -1 -11   12.20    5.20
  -5  -1 -11    3.80    4.30
  -5  -1 -11    7.20    4.10
   5  -1  11    4.20    2.30
  -5  -1 -11    8.60    3.70
  -5  -1 -11   12.80    7.10
  -5   1 -12   -0.80    3.00
  -5   1 -12    1.60    3.90
  -5   1 -12   -3.90    4.60
  -5   1 -12    1.40    4.20
  -5  -1 -12    2.30    7.40
   5  -1  12   -0.70    1.80
  -5  -1 -12    1.00    4.30
  -5  -1 -12    1.70    4.50
  -5   1 -13    0.30    4.10
  -5   1 -13   -1.20    4.40
  -5   1 -13   -2.10    5.50
  -5  -1 -13    8.30    5.00
  -5  -1 -13    7.60    6.10
  -5  -1 -13    4.00    8.10
  -5   1 -14  143.79   22.50
  -5   1 -14  119.69   19.80
  -5   1 -14  103.99   19.10
  -5  -1 -14  188.78   25.50
  -5  -1 -14  117.99   19.90
  -5  -1 -14  200.48   20.30
   5   2 -16   16.50    5.80
   5   2 -16   12.20    8.90
   5   2 -16   17.10    6.90
   5  -2 -16   27.70    7.80
   5  -2 -16   -1.50    6.00
   5  -2 -16   18.70    9.50
   5   2 -15   10.90    7.60
   5   2 -15    8.10    4.20
   5   2 -15    8.80    6.00
   5   2 -15   13.50    6.00
   5  -2 -15    0.70    6.80
   5  -2 -15    6.40    6.20
   5  -2 -15   12.90    6.20
   5   2 -14   -3.00    2.80
   5   2 -14    1.30    3.90
   5   2 -14   -3.90    4.90
   5   2 -14   -2.00    3.90
   5  -2 -14   -1.30    5.50
   5  -2 -14    3.70    4.00
   5  -2 -14    6.30    5.00
   5   2 -13    1.40    2.80
   5   2 -13    0.80    4.20
   5   2 -13   -1.00    4.70
   5   2 -13    7.00    4.80
   5  -2 -13   -0.50    4.80
   5  -2 -13    0.60    4.40
   5  -2 -13    6.00    4.90
   5   2 -12   26.20    6.50
   5   2 -12   35.10    7.20
   5   2 -12   13.20    5.10
   5   2 -12   23.20    9.10
   5  -2 -12   34.00    8.80
   5  -2 -12   37.50    7.60
   5  -2 -12   24.00    5.20
   5  -2 -12   19.60    6.00
  -5  -2  12   28.50    4.70
   5   2 -11  231.28   25.70
   5   2 -11  163.18   27.60
   5   2 -11  200.38   25.10
   5   2 -11  189.58   24.80
   5  -2 -11  221.38   23.90
   5  -2 -11  207.18   24.40
   5  -2 -11  193.78   25.10
   5  -2 -11  212.68   26.60
   5  -2 -11  233.98   25.50
  -5  -2  11  208.48   23.60
   5   2 -10  383.66   39.00
   5   2 -10  284.47   38.40
   5   2 -10  282.57   41.30
   5   2 -10  334.27   39.00
  -5  -2  10  361.76   37.60
   5  -2 -10  354.56   37.60
   5  -2 -10  320.67   38.80
   5  -2 -10  338.67   38.80
   5  -2 -10  323.57   37.20
   5  -2 -10  346.17   37.80
   5  -2 -10  346.67   40.00
   5   2  -9   34.90    7.20
   5   2  -9   31.70    6.40
  -5   2   9   30.80    4.80
   5   2  -9   35.00    6.30
   5   2  -9   28.30    8.40
   5  -2  -9   41.80    5.50
  -5  -2   9   31.90    5.10
   5  -2  -9   39.40    6.90
   5  -2  -9   43.50    5.90
   5  -2  -9   33.50    7.20
   5  -2  -9   28.20    6.30
  -5  -2   9   32.80    4.90
   5   2  -8   72.99    9.90
  -5   2   8   46.80    7.20
   5   2  -8   52.29    8.70
   5   2  -8   57.89    7.40
   5   2  -8   59.99   12.10
   5   2  -8   58.19    7.20
   5   2  -8   51.49    8.40
   5  -2  -8   54.79    9.50
   5  -2  -8   65.89    9.40
   5  -2  -8   73.69    8.30
   5  -2  -8   62.39    7.40
  -5  -2   8   58.09    7.60
  -5  -2   8   46.10    7.00
   5  -2  -8   70.19    9.40
   5   2  -7  170.18   19.20
   5   2  -7  156.98   19.40
   5   2  -7  163.88   18.50
  -5   2   7  160.58   18.30
  -5   2   7  157.58   18.10
   5   2  -7  154.88   21.40
   5   2  -7  163.08   18.10
   5   2  -7  145.09   19.10
  -5  -2   7  164.68   18.50
  -5  -2   7  148.89   18.20
   5  -2  -7  163.88   19.30
   5  -2  -7  153.58   19.20
   5  -2  -7  170.18   18.30
   5  -2  -7  180.88   18.60
   5  -2  -7  161.18   19.60
   5   2  -6  855.81   94.09
   5   2  -6  762.62   95.09
  -5   2   6  828.22   94.29
   5   2  -6  848.92   95.09
   5   2  -6  890.51   94.69
   5   2  -6  861.21   94.99
  -5   2   6  876.91   94.19
   5   2  -6  874.31   97.19
   5  -2  -6  853.01   95.19
   5  -2  -6  911.31   95.19
  -5  -2   6  830.52   94.49
   5  -2  -6  887.11   95.39
  -5  -2   6  897.51   94.69
  -5  -2   6  838.72   94.29
   5  -2  -6  895.51   94.49
   5   2  -5  259.17   29.40
   5   2  -5  283.67   29.70
   5   2  -5  246.88   28.60
  -5   2   5  258.27   28.80
   5   2  -5  274.67   29.80
   5   2  -5  259.47   29.30
  -5   2   5  244.48   28.90
  -5  -2   5  254.37   28.80
  -5  -2   5  263.27   29.30
   5  -2  -5  263.37   29.60
  -5  -2   5  248.98   29.10
   5  -2  -5  247.18   29.60
   5  -2  -5  288.07   29.70
   5  -2  -5  258.97   29.00
   5   2  -4   68.99    8.70
   5   2  -4   64.69    7.80
  -5   2   4   72.09    8.20
   5   2  -4   77.99    9.00
   5   2  -4   68.59    8.60
  -5  -2   4   73.09    8.50
   5  -2  -4   67.49    8.70
   5  -2  -4   81.39    8.80
  -5  -2   4   68.69    8.10
   5  -2  -4   72.19    8.20
   5   2  -3   12.90    2.50
  -5   2   3    9.60    1.90
   5   2  -3    9.90    2.70
   5   2  -3   11.90    2.30
   5  -2  -3   14.80    2.70
  -5  -2   3   11.70    1.80
   5  -2  -3   12.80    1.90
  -5  -2   3    8.80    2.00
  -5  -2   3    4.60    1.90
  -5   2   2   42.00    4.40
   5   2  -2   34.80    5.20
   5   2  -2   34.10    4.40
   5   2  -2   34.60    4.90
   5  -2  -2   40.30    4.50
  -5  -2   2   34.30    4.30
  -5  -2   2   29.90    4.90
   5  -2  -2   37.30    4.90
  -5  -2   2   31.90    4.70
  -5   2   1  202.48   22.00
   5   2  -1  198.38   22.50
   5   2  -1  188.58   21.90
   5   2  -1  204.28   22.30
  -5  -2   1  191.68   22.20
  -5  -2   1  210.18   21.80
   5  -2  -1  190.78   22.10
   5   2   0   30.30    4.40
   5   2   0   31.70    3.80
  -5   2   0   33.30    4.10
   5   2   0   35.50    4.90
  -5  -2   0   32.80    4.40
   5  -2   0   30.50    3.90
  -5  -2   0   33.30    3.70
  -5  -2   0   27.50    3.70
   5  -2   0   35.00    4.30
  -5   2  -1    9.40    1.30
   5   2   1    8.40    1.20
  -5   2  -1    6.50    1.60
   5   2   1   10.80    2.20
  -5   2  -1    7.80    1.60
   5   2   1    8.50    1.90
   5  -2   1    7.40    1.50
  -5  -2  -1    8.70    1.60
   5  -2   1    7.20    1.70
  -5  -2  -1    7.10    2.00
  -5  -2  -1    8.00    2.00
  -5  -2  -1    8.20    1.10
  -5  -2  -1    8.90    1.50
   5   2   2    4.60    1.40
  -5   2  -2    6.10    1.70
   5   2   2    4.00    1.50
  -5   2  -2    4.90    1.30
   5   2   2    3.10    0.60
  -5   2  -2    2.20    0.70
  -5  -2  -2    1.90    1.50
  -5  -2  -2    4.70    1.20
   5  -2   2    3.10    1.30
  -5  -2  -2    3.20    1.10
   5  -2   2    3.70    1.20
   5   2   3    6.30    1.90
   5   2   3   11.70    2.50
  -5   2  -3    7.90    1.50
  -5   2  -3    7.80    2.40
  -5   2  -3   10.40    2.40
  -5   2  -3   12.40    2.40
   5  -2   3    9.50    2.10
  -5  -2  -3    9.40    2.60
   5  -2   3    8.90    1.90
  -5  -2  -3   11.30    2.10
  -5  -2  -3   10.80    2.00
  -5  -2  -3   26.50    4.80
   5   2   4   51.49    6.80
  -5   2  -4   53.39    8.60
   5   2   4   58.89    7.50
  -5   2  -4   56.19    7.70
  -5   2  -4   57.49    7.60
  -5   2  -4   55.69    7.70
  -5   2  -4   55.79    6.40
  -5   2  -4   42.20    7.60
   5  -2   4   59.79    7.20
  -5  -2  -4   58.69    7.00
  -5  -2  -4   83.19    8.80
  -5  -2  -4   57.09    6.80
  -5  -2  -4   49.90    7.80
   5  -2   4   51.59    6.80
  -5  -2  -4   49.30    7.20
  -5   2  -5   63.39    8.30
  -5   2  -5   51.69    7.70
   5   2   5   54.59    6.90
  -5   2  -5   61.59    7.10
  -5   2  -5   58.19   10.20
  -5   2  -5   46.90    8.00
  -5   2  -5   49.99    7.80
  -5  -2  -5   60.09    7.00
   5  -2   5   64.69    7.70
  -5  -2  -5   73.89    9.30
  -5  -2  -5   57.39    7.10
  -5  -2  -5   48.40    8.10
  -5  -2  -5   42.60    7.20
   5  -2   5   49.99    6.90
  -5   2  -6   -1.70    1.60
  -5   2  -6   -0.50    1.60
  -5   2  -6   -1.00    1.40
  -5   2  -6   -0.50    2.80
   5   2   6   -0.30    1.00
  -5   2  -6    2.50    2.20
  -5   2  -6   -1.70    1.60
  -5  -2  -6    0.90    1.40
  -5  -2  -6   -0.40    1.10
   5  -2   6    0.30    1.10
   5  -2   6    1.30    1.60
  -5  -2  -6    0.60    1.80
  -5  -2  -6    0.80    2.20
  -5  -2  -6    1.40    3.40
  -5   2  -7    4.40    2.10
  -5   2  -7    2.10    2.30
  -5   2  -7   13.40    3.60
  -5   2  -7    4.50    2.90
  -5   2  -7    5.20    2.90
  -5   2  -7    1.70    3.80
   5   2   7    8.50    2.00
  -5  -2  -7    6.00    2.30
  -5  -2  -7    2.20    3.00
   5  -2   7   10.20    2.10
  -5  -2  -7   12.00    5.00
  -5  -2  -7    8.40    2.60
  -5   2  -8   57.89    9.10
  -5   2  -8   56.69    8.10
  -5   2  -8   59.19    9.30
   5   2   8   57.69    7.40
  -5   2  -8   43.30    8.20
  -5   2  -8   54.39    9.30
  -5   2  -8   62.89   12.40
  -5  -2  -8   54.99    9.40
  -5  -2  -8   86.99   11.50
   5  -2   8   43.80    7.10
  -5  -2  -8   46.10    7.90
  -5  -2  -8   54.49    8.40
  -5   2  -9   -0.30    2.10
  -5   2  -9   -2.50    3.50
  -5   2  -9   -1.90    2.20
  -5   2  -9   -1.80    2.50
  -5   2  -9    1.00    2.80
   5   2   9    1.00    1.40
  -5   2  -9   -0.10    3.10
  -5  -2  -9   -0.60    5.80
  -5  -2  -9   11.30    3.80
  -5  -2  -9    4.20    2.50
   5  -2   9   -0.90    1.20
  -5  -2  -9    3.30    3.40
  -5   2 -10   31.70   10.20
  -5   2 -10   51.89    9.20
  -5   2 -10   52.39    7.90
  -5   2 -10   33.20    8.20
  -5   2 -10   70.49   10.30
  -5   2 -10   56.79    8.90
  -5  -2 -10   50.99    8.10
  -5  -2 -10   54.99    9.50
  -5  -2 -10   66.29   12.30
  -5  -2 -10   58.19    8.80
   5  -2  10   47.70    6.60
  -5   2 -11    1.50    4.20
  -5   2 -11    0.60    3.80
  -5   2 -11    0.20    2.30
  -5   2 -11   -1.30    3.50
  -5   2 -11    2.70    4.80
  -5  -2 -11    9.90    3.80
  -5  -2 -11    1.10    6.90
  -5  -2 -11   10.00    4.90
  -5  -2 -11    0.10    3.40
   5  -2  11   -0.70    1.30
  -5   2 -12   -0.60    2.70
  -5   2 -12   -0.40    3.70
  -5   2 -12    0.10    3.70
  -5   2 -12   -1.20    4.90
  -5  -2 -12   -1.60    8.20
   5  -2  12   -1.70    1.90
  -5  -2 -12   -1.20    4.30
  -5  -2 -12   -2.90    3.50
  -5   2 -13   10.30    6.90
  -5   2 -13    7.10    5.40
  -5   2 -13    5.40    4.90
  -5  -2 -13   -1.50   10.50
  -5  -2 -13   12.50    5.80
  -5  -2 -13   20.50    6.50
  -5   2 -14    7.10    5.70
  -5   2 -14   -1.10    8.00
  -5  -2 -14    1.40    5.00
  -5  -2 -14   -2.70   11.50
  -5  -2 -14    6.50    5.40
   5   3 -16   10.00    5.00
   5   3 -16    8.10    6.30
   5   3 -16    5.50    7.70
   5  -3 -16    7.40    9.20
   5  -3 -16   17.10    7.10
   5  -3 -16   26.50    7.80
   5   3 -15   13.90    5.90
   5   3 -15    2.00    6.50
   5   3 -15   15.20    5.20
   5  -3 -15    0.70    4.90
   5  -3 -15   -0.80    7.20
   5  -3 -15    2.40    5.80
   5   3 -14   14.90    5.80
   5   3 -14    8.50    4.20
   5   3 -14    9.70    5.30
   5   3 -14    4.10    6.60
   5  -3 -14    6.90    5.60
   5  -3 -14   15.30    7.90
   5  -3 -14   12.90    6.60
   5   3 -13    7.00    4.40
   5   3 -13    3.90    4.60
   5   3 -13    4.30    6.50
   5   3 -13   -0.50    3.10
  -5  -3  13    7.20    2.50
   5  -3 -13    3.30    4.60
   5  -3 -13    2.30    4.30
   5  -3 -13   -1.40    5.90
   5   3 -12    3.60    4.10
   5   3 -12    1.00    3.10
   5   3 -12    4.90    5.80
   5   3 -12    4.10    3.80
   5  -3 -12    4.00    2.80
   5  -3 -12    1.50    5.00
  -5  -3  12    5.60    2.60
   5  -3 -12    4.10    4.10
   5  -3 -12    3.10    4.20
   5   3 -11    4.60    3.70
   5   3 -11   -3.00    4.20
   5   3 -11    4.40    3.30
   5   3 -11    5.30    3.80
  -5  -3  11    8.90    2.90
   5  -3 -11    4.00    3.90
   5  -3 -11    2.60    3.70
   5  -3 -11    4.50    4.90
   5   3 -10    8.60    4.00
   5   3 -10    6.50    3.30
   5   3 -10   12.80    4.40
   5   3 -10    6.80    5.60
   5  -3 -10   13.90    5.40
   5  -3 -10    5.00    3.60
  -5  -3  10    7.60    2.70
   5  -3 -10    5.10    2.50
   5  -3 -10   14.80    4.50
   5   3  -9    7.90    3.50
   5   3  -9    9.50    5.90
   5   3  -9   12.20    2.80
   5   3  -9    8.30    3.60
   5   3  -9    8.90    3.90
  -5   3   9   12.30    2.80
   5  -3  -9    7.80    2.80
  -5  -3   9    7.00    2.50
   5  -3  -9    3.30    3.30
   5  -3  -9    8.50    3.90
   5  -3  -9   14.80    4.90
   5   3  -8    2.40    3.90
  -5   3   8    1.70    1.50
   5   3  -8   -0.70    1.60
   5   3  -8    3.30    2.60
  -5   3   8    2.40    1.30
   5   3  -8    1.30    2.70
   5   3  -8    3.50    2.40
   5  -3  -8    5.80    2.10
  -5  -3   8    0.30    1.10
   5  -3  -8    0.40    2.50
   5  -3  -8    0.10    2.10
   5  -3  -8    2.60    3.40
  -5  -3   8    1.80    1.50
  -5   3   7  325.27   36.20
   5   3  -7  334.57   37.10
  -5   3   7  324.27   36.40
   5   3  -7  317.07   40.00
   5   3  -7  339.77   37.60
   5   3  -7  322.67   36.20
   5   3  -7  314.07   37.40
   5   3  -7  343.37   36.90
  -5  -3   7  338.87   36.30
   5  -3  -7  373.06   37.40
   5  -3  -7  324.27   36.70
  -5  -3   7  323.57   36.70
   5  -3  -7  287.97   37.20
  -5  -3   7  319.27   36.90
   5   3  -6  253.07   29.40
   5   3  -6  263.37   29.30
   5   3  -6  260.87   28.50
   5   3  -6  271.07   29.80
   5   3  -6  262.57   29.20
  -5   3   6  269.67   28.60
   5   3  -6  238.08   29.60
   5  -3  -6  229.28   29.40
  -5  -3   6  238.88   29.00
  -5  -3   6  274.77   29.30
   5  -3  -6  250.47   28.90
  -5  -3   6  252.47   28.60
   5  -3  -6  270.27   29.40
   5   3  -5   23.20    4.30
   5   3  -5   30.40    3.60
   5   3  -5   26.20    4.50
   5   3  -5   26.50    4.80
  -5   3   5   24.90    3.80
   5   3  -5   25.40    5.00
   5   3  -5   32.90    4.60
  -5  -3   5   27.80    4.30
   5  -3  -5   22.20    4.00
   5  -3  -5   27.20    4.90
  -5  -3   5   27.40    3.90
   5  -3  -5   26.90    4.80
   5  -3  -5   26.10    4.90
   5  -3  -5   32.40    3.70
  -5  -3   5   31.30    4.70
  -5   3   4    6.60    1.40
   5   3  -4    5.40    2.20
   5   3  -4    3.10    1.70
   5   3  -4    4.90    1.80
   5   3  -4    2.50    1.50
   5  -3  -4   10.10    3.20
  -5  -3   4    2.20    1.70
   5  -3  -4    4.80    1.80
   5  -3  -4    6.80    1.30
   5  -3  -4    6.80    2.30
  -5  -3   4    2.10    1.10
  -5  -3   4    7.10    2.00
   5   3  -3   12.30    3.00
   5   3  -3   27.90    4.10
   5   3  -3   14.50    3.00
  -5   3   3   17.60    2.60
   5  -3  -3   15.90    2.50
   5  -3  -3   14.80    3.00
  -5  -3   3   19.20    3.40
  -5  -3   3   16.00    3.00
  -5  -3   3   19.40    2.60
   5   3  -2   87.69   12.10
   5   3  -2  104.99   12.00
   5   3  -2  108.49   12.10
  -5   3   2  104.19   11.50
   5  -3  -2  110.09   11.80
  -5  -3   2   97.09   11.90
  -5  -3   2   97.39   12.00
  -5  -3   2   97.59   11.40
   5  -3  -2  101.59   11.60
  -5   3   1   54.19    6.00
   5   3  -1   49.99    6.90
   5   3  -1   37.60    6.30
   5   3  -1   44.40    5.80
  -5  -3   1   48.40    6.80
  -5  -3   1   46.30    6.50
  -5  -3   1   50.09    5.80
   5  -3  -1   47.40    5.80
   5  -3  -1   46.30    6.00
   5  -3  -1   69.79    6.30
   5   3   0  754.82   86.59
   5   3   0  805.42   87.39
  -5   3   0  795.82   86.79
   5   3   0  799.82   87.19
   5  -3   0  772.52   86.99
  -5  -3   0  821.92   87.09
  -5  -3   0  783.42   87.19
  -5  -3   0  796.22   86.59
   5  -3   0  814.92   86.79
   5   3   1  203.98   22.50
  -5   3  -1  205.08   22.80
   5   3   1  203.68   23.30
   5   3   1  213.58   23.10
  -5  -3  -1  184.58   23.00
  -5  -3  -1  206.18   23.20
   5  -3   1  210.18   22.80
   5  -3   1  210.38   23.00
  -5  -3  -1  201.88   23.00
  -5  -3  -1  200.98   22.40
   5   3   2    7.20    2.20
  -5   3  -2   10.80    2.50
   5   3   2   12.40    2.40
  -5   3  -2    8.30    1.90
  -5  -3  -2    9.30    2.20
  -5  -3  -2    7.60    1.60
  -5  -3  -2   11.60    2.60
   5  -3   2   11.00    2.20
  -5  -3  -2    7.10    1.70
   5  -3   2   11.00    1.90
   5   3   3   78.49    9.10
  -5   3  -3   75.09    9.00
  -5   3  -3   74.19    9.00
   5   3   3   74.89    9.20
  -5   3  -3   80.49   10.70
  -5   3  -3   67.89    9.30
  -5  -3  -3   63.19    9.70
  -5  -3  -3   72.69    9.00
  -5  -3  -3   79.99    8.70
   5  -3   3   76.59    8.90
   5  -3   3   72.39    9.10
  -5  -3  -3   63.59    8.60
   5   3   4   45.60    6.30
  -5   3  -4   37.80    6.30
  -5   3  -4   49.00    6.60
  -5   3  -4   43.40    8.70
  -5   3  -4   42.60    7.00
  -5  -3  -4   76.19    9.10
   5  -3   4   45.70    6.30
  -5  -3  -4   43.70    6.10
  -5  -3  -4   51.49    6.30
   5  -3   4   41.80    6.00
  -5  -3  -4   44.00    7.00
  -5  -3  -4   41.70    5.70
  -5   3  -5   99.49   14.70
  -5   3  -5  100.59   12.70
   5   3   5  107.09   12.30
  -5   3  -5   99.69   12.50
  -5   3  -5   90.49   13.00
  -5   3  -5   86.19   12.90
  -5   3  -5  112.09   12.20
  -5  -3  -5   98.69   12.30
   5  -3   5  109.79   12.50
  -5  -3  -5  107.99   12.10
  -5  -3  -5  105.19   13.80
   5  -3   5  106.29   12.30
  -5  -3  -5  114.09   12.20
  -5   3  -6   43.20    9.20
  -5   3  -6   42.30    6.70
  -5   3  -6   47.80    7.00
  -5   3  -6   47.10    6.90
  -5   3  -6   29.80    6.60
  -5   3  -6   40.30    5.90
   5   3   6   41.20    5.90
  -5  -3  -6   58.19    9.10
  -5  -3  -6   27.50    6.40
  -5  -3  -6   37.70    6.10
   5  -3   6   43.20    5.90
   5  -3   6   43.90    6.20
  -5  -3  -6   46.50    6.20
  -5   3  -7    1.60    2.20
  -5   3  -7    4.50    2.40
  -5   3  -7   -4.30    1.60
  -5   3  -7   -0.10    1.60
  -5   3  -7    0.90    3.70
  -5   3  -7   -0.10    2.30
   5   3   7    1.80    1.60
  -5  -3  -7    3.80    5.60
   5  -3   7    0.50    1.90
  -5  -3  -7   -1.90    1.70
  -5  -3  -7   -1.70    2.60
   5  -3   7    1.20    1.40
  -5  -3  -7    0.40    1.70
  -5   3  -8    6.20    5.10
  -5   3  -8   10.80    2.90
   5   3   8    4.30    1.90
  -5   3  -8    6.80    3.70
  -5   3  -8    5.00    3.10
  -5   3  -8   11.30    3.60
  -5   3  -8    3.50    2.90
  -5  -3  -8   16.20    7.40
  -5  -3  -8    7.30    2.80
  -5  -3  -8   10.80    3.20
  -5  -3  -8    5.10    3.50
   5  -3   8    6.80    2.10
  -5   3  -9   -2.10    2.80
  -5   3  -9   -0.60    3.90
  -5   3  -9   -2.20    2.40
  -5   3  -9   -2.80    2.30
  -5   3  -9   -0.10    2.10
   5   3   9   -0.70    1.70
  -5   3  -9    0.40    3.20
  -5  -3  -9    1.70    2.50
  -5  -3  -9    2.90    6.80
  -5  -3  -9   -1.70    3.50
   5  -3   9   -0.20    1.50
  -5  -3  -9    3.90    3.10
  -5   3 -10   21.20    8.60
  -5   3 -10   33.30    5.50
  -5   3 -10   20.90    6.10
  -5   3 -10   16.30    5.40
  -5   3 -10   20.40    6.00
  -5   3 -10   25.80    6.00
  -5  -3 -10   28.90    5.70
  -5  -3 -10   24.60    5.30
  -5  -3 -10   25.40    6.60
  -5  -3 -10   54.99   11.90
   5  -3  10   18.00    3.90
  -5   3 -11   -0.70    4.30
  -5   3 -11    3.40    4.50
  -5   3 -11    2.50    2.60
  -5   3 -11   -0.20    3.20
  -5   3 -11    0.50    3.40
  -5   3 -11    7.40    4.60
  -5  -3 -11    7.20    9.50
   5  -3  11    5.70    2.00
  -5  -3 -11    2.70    3.20
  -5  -3 -11    2.30    4.10
  -5  -3 -11    3.80    4.00
  -5   3 -12   -0.20    3.80
  -5   3 -12   -1.40    4.20
  -5   3 -12    3.70    3.20
  -5   3 -12    0.40    3.90
  -5  -3 -12   -6.10    9.40
  -5  -3 -12    6.00    4.70
  -5  -3 -12   -3.30    4.00
   5  -3  12   -0.30    1.70
  -5   3 -13   -2.00    6.90
  -5   3 -13   11.10    5.00
   5  -3  13    2.60    2.40
  -5  -3 -13   -5.60   10.90
  -5  -3 -13    2.40    4.90
  -5  -3 -13   18.50    6.30
  -5   3 -14   -1.10    4.50
  -5  -3 -14   -4.50    4.60
  -5  -3 -14  -15.70   11.60
  -5  -3 -14  -11.00    3.70
   5   4 -15   -1.40    3.80
   5   4 -15    1.20    3.50
   5   4 -15   -2.10    6.00
   5  -4 -15  -10.50    7.30
   5  -4 -15    7.10    6.40
   5   4 -14    7.60    5.10
   5   4 -14   -4.00    4.60
   5   4 -14   -3.10    3.30
   5  -4 -14   -4.30    7.20
   5  -4 -14    2.50    5.10
  -5  -4  14    3.90    2.60
   5   4 -13    9.20    4.60
   5   4 -13    4.60    3.70
   5   4 -13    3.10    5.70
  -5  -4  13    2.80    2.90
   5  -4 -13    5.60    5.00
   5  -4 -13    6.00    3.60
   5   4 -12   -3.20    3.80
   5   4 -12    0.20    3.10
   5   4 -12    1.00    3.50
  -5  -4  12    3.00    2.50
   5  -4 -12    8.20    4.80
   5  -4 -12   -0.50    6.30
   5  -4 -12    2.40    2.90
   5   4 -11   -4.50    2.50
   5   4 -11    1.20    4.90
   5   4 -11    4.40    3.70
   5   4 -11   -1.80    2.50
   5  -4 -11    3.20    6.00
   5  -4 -11   -0.80    3.50
  -5  -4  11    2.20    2.40
   5  -4 -11   -3.80    2.10
   5  -4 -11   -0.70    4.80
   5   4 -10   55.39    8.40
   5   4 -10   37.00    7.60
   5   4 -10   23.90    7.10
   5   4 -10   37.10   11.50
   5  -4 -10   49.60    9.40
   5  -4 -10   38.80    6.70
  -5  -4  10   35.60    6.40
   5  -4 -10   44.50    8.10
   5  -4 -10   44.90    9.30
   5   4  -9   25.00    5.30
   5   4  -9   14.80    3.90
  -5   4   9   21.40    3.60
   5   4  -9   21.00    7.90
   5   4  -9   13.20    4.80
   5   4  -9   22.90    5.80
   5  -4  -9   29.10    6.90
   5  -4  -9   21.20    4.40
   5  -4  -9   21.40    5.40
   5  -4  -9   25.50    7.70
  -5  -4   9   21.90    4.40
   5   4  -8    0.20    3.50
  -5   4   8    1.90    1.90
   5   4  -8    2.60    2.50
  -5   4   8    1.90    1.50
   5   4  -8    2.90    2.90
   5   4  -8    2.70    2.20
   5   4  -8   -1.00    2.00
   5  -4  -8    7.80    3.20
   5  -4  -8    1.30    3.90
   5  -4  -8    1.00    1.90
  -5  -4   8    0.10    1.80
   5   4  -7   -2.00    1.60
   5   4  -7    1.90    2.10
  -5   4   7   -0.40    1.20
   5   4  -7    0.70    1.20
   5   4  -7   -5.90    1.90
   5   4  -7   -2.70    1.60
   5  -4  -7    0.80    2.10
   5  -4  -7    1.50    1.70
  -5  -4   7    0.90    1.20
  -5  -4   7    0.90    1.50
  -5  -4   7   -0.30    2.00
   5  -4  -7    1.70    4.20
   5   4  -6    9.20    1.90
   5   4  -6   12.60    3.70
   5   4  -6    7.00    3.10
   5   4  -6    7.00    2.50
   5   4  -6   13.00    3.10
   5   4  -6    8.90    2.80
  -5   4   6    6.60    2.00
   5  -4  -6    7.80    2.50
   5  -4  -6    9.60    3.20
   5  -4  -6   19.80    5.10
  -5  -4   6    9.10    2.90
  -5  -4   6    8.70    2.10
  -5  -4   6   11.70    2.80
   5   4  -5   58.89    7.80
   5   4  -5   65.49    7.70
   5   4  -5   45.40    8.00
   5   4  -5   49.40    7.90
  -5   4   5   54.29    6.90
  -5  -4   5   54.19    6.80
   5  -4  -5   48.40    7.40
  -5  -4   5   57.99    7.70
  -5  -4   5   52.09    8.00
   5  -4  -5   60.39    6.60
   5  -4  -5   53.29    8.20
   5   4  -4    2.80    1.80
   5   4  -4    5.90    1.70
   5   4  -4    3.70    2.30
  -5   4   4    3.90    1.40
   5   4  -4    6.00    2.40
   5  -4  -4    2.90    1.10
   5  -4  -4    6.90    3.90
  -5  -4   4    3.70    1.30
   5  -4  -4    2.60    1.80
  -5  -4   4    1.30    1.70
  -5  -4   4    3.40    1.80
   5   4  -3   47.80    6.60
   5   4  -3   36.90    6.60
   5   4  -3   55.29    7.10
  -5   4   3   36.00    5.70
  -5  -4   3   50.49    6.60
   5  -4  -3   46.60    5.60
  -5  -4   3   48.20    6.90
   5  -4  -3   50.09    6.50
  -5  -4   3   46.10    5.60
   5   4  -2  226.08   26.20
  -5   4   2  223.18   25.50
   5   4  -2  221.88   25.90
   5   4  -2  231.28   26.00
  -5  -4   2  205.88   26.00
  -5  -4   2  225.08   25.80
   5  -4  -2  221.28   25.40
   5  -4  -2  242.38   25.70
  -5  -4   2  237.38   25.30
   5  -4  -2  236.58   25.30
   5   4  -1   66.69    9.40
   5   4  -1   69.09    9.90
  -5   4   1   69.19    8.60
   5  -4  -1   72.39    8.50
   5  -4  -1  102.39    9.00
  -5  -4   1   75.09    8.40
  -5  -4   1   66.49    9.50
  -5  -4   1   68.09    9.00
   5  -4  -1   64.39    8.70
  -5   4   0  708.93   80.09
   5   4   0  719.53   80.59
   5   4   0  752.42   80.89
   5  -4   0  736.93   80.09
  -5  -4   0  694.73   80.59
  -5  -4   0  765.62   79.89
  -5  -4   0  743.93   80.49
   5  -4   0  751.92   80.39
  -5  -4   0  698.93   80.19
  -5   4  -1  279.77   32.10
   5   4   1  278.27   32.50
  -5   4  -1  274.77   32.50
   5   4   1  291.57   32.70
   5  -4   1  299.37   32.20
  -5  -4  -1  267.77   32.30
  -5  -4  -1  308.47   32.60
  -5  -4  -1  313.27   31.80
  -5  -4  -1  291.77   32.40
   5  -4   1  277.67   32.40
  -5   4  -2   54.59    7.00
   5   4   2   45.80    7.40
   5   4   2   64.89    8.20
  -5   4  -2   55.79    8.00
   5  -4   2   49.99    7.40
   5  -4   2   67.99    7.20
  -5  -4  -2   56.19    7.40
  -5  -4  -2   45.00    7.50
  -5  -4  -2   71.29    7.60
  -5   4  -3   71.49    9.90
   5   4   3   74.99    9.50
  -5   4  -3   72.59    9.40
  -5   4  -3   92.29   11.80
  -5   4  -3   81.39    9.30
   5   4   3   92.39   10.00
   5  -4   3   68.59    9.50
  -5  -4  -3   71.59    9.00
  -5  -4  -3   82.69    9.50
   5  -4   3   77.39    9.40
  -5  -4  -3   70.09   10.10
  -5   4  -4    1.70    1.50
   5   4   4    3.40    1.60
  -5   4  -4    2.80    3.30
  -5   4  -4   -1.40    1.10
  -5   4  -4    3.80    2.50
  -5  -4  -4    4.60    1.60
  -5  -4  -4    4.90    2.40
   5  -4   4    3.40    1.80
   5  -4   4    0.70    1.30
  -5  -4  -4    0.50    1.20
  -5  -4  -4    1.30    1.30
  -5   4  -5   34.90    6.60
  -5   4  -5   35.20    5.90
   5   4   5   34.10    5.60
  -5   4  -5   40.00    8.90
  -5   4  -5   35.30    6.00
  -5   4  -5   51.59    6.50
   5  -4   5   33.00    5.80
  -5  -4  -5   41.00    5.50
   5  -4   5   30.50    5.30
  -5  -4  -5   40.00    5.60
  -5  -4  -5   39.80    5.20
  -5  -4  -5   76.09   10.10
  -5  -4  -5   33.00    6.40
  -5   4  -6   33.70    5.40
  -5   4  -6   25.20    7.50
  -5   4  -6   23.90    4.90
  -5   4  -6   26.20    5.00
   5   4   6   33.50    4.80
  -5   4  -6   18.00    5.20
  -5   4  -6   31.80    4.60
  -5  -4  -6   44.70    9.10
  -5  -4  -6   25.90    4.50
   5  -4   6   26.30    4.60
  -5  -4  -6   29.50    4.60
  -5  -4  -6   21.80    5.40
   5  -4   6   31.10    4.70
  -5   4  -7    7.80    2.90
  -5   4  -7    1.10    3.70
  -5   4  -7    3.20    2.20
  -5   4  -7    4.90    2.70
   5   4   7    5.10    2.00
  -5   4  -7   11.00    3.70
  -5   4  -7    0.50    2.00
  -5  -4  -7    5.70    3.70
  -5  -4  -7   10.20    7.30
   5  -4   7    6.40    2.10
   5  -4   7    6.70    2.50
  -5  -4  -7    4.60    2.20
  -5  -4  -7   13.70    2.90
  -5   4  -8  228.78   26.00
  -5   4  -8  229.58   25.80
  -5   4  -8  211.18   29.00
   5   4   8  200.28   24.60
  -5   4  -8  254.97   26.00
  -5   4  -8  228.18   25.00
  -5   4  -8  172.48   25.90
  -5  -4  -8  213.38   25.10
  -5  -4  -8  182.48   26.00
   5  -4   8  212.48   24.80
  -5  -4  -8  254.37   25.10
  -5   4  -9   44.60    7.30
  -5   4  -9   41.60    8.10
  -5   4  -9   44.70    9.20
  -5   4  -9   45.50    8.30
  -5   4  -9   38.60   11.10
  -5   4  -9   33.10    7.70
  -5  -4  -9   46.60    9.30
   5  -4   9   39.60    6.70
  -5  -4  -9   56.09    7.90
  -5  -4  -9   68.49    8.10
  -5  -4  -9   89.89   14.60
  -5   4 -10   -4.20    2.80
  -5   4 -10    0.80    3.10
  -5   4 -10    2.30    3.40
  -5   4 -10    0.70    3.90
  -5   4 -10    3.10    4.70
  -5   4 -10   -2.10    2.50
   5  -4  10    0.30    1.60
  -5  -4 -10   -0.10    9.20
  -5  -4 -10   -0.60    3.00
  -5  -4 -10   -1.90    2.10
  -5  -4 -10    4.20    4.20
  -5   4 -11   -5.50    3.30
  -5   4 -11    0.40    2.70
  -5   4 -11   -0.80    3.30
  -5   4 -11   -2.20    3.50
  -5  -4 -11   -5.00    2.90
   5  -4  11    1.10    1.60
  -5  -4 -11   -4.90    3.70
  -5  -4 -11    0.20   10.30
  -5   4 -12    0.30    3.90
  -5   4 -12   -3.40    4.50
   5  -4  12    4.40    2.10
  -5  -4 -12   10.20    4.40
  -5  -4 -12    5.10    4.80
  -5  -4 -12    2.50   11.70
  -5   4 -13   -3.60    4.00
  -5  -4 -13    3.20    4.90
  -5  -4 -13   -7.50   12.40
   5  -4  13    5.80    2.30
  -5  -4 -13   17.20    4.90
   5   5 -15   16.10    6.10
   5   5 -15   13.50    5.80
   5   5 -15   20.80   10.70
   5  -5 -15   11.60   10.30
   5   5 -14   23.50    7.60
   5   5 -14   49.90    9.10
   5   5 -14   25.90   11.40
   5  -5 -14   58.49   13.20
  -5  -5  14   53.59    7.30
   5  -5 -14   38.40    7.30
   5  -5 -14   41.00   10.00
   5   5 -13   -3.70    5.00
   5   5 -13    0.90    3.70
   5   5 -13    1.60    4.00
  -5  -5  13    2.30    2.90
   5  -5 -13    5.30    5.70
   5  -5 -13   -5.00    7.50
   5  -5 -13    5.00    3.60
   5   5 -12    9.80    5.10
   5   5 -12   19.10    6.00
   5   5 -12   19.90    9.70
   5  -5 -12   16.10    4.70
  -5  -5  12   24.00    4.90
   5  -5 -12   21.00    6.90
   5  -5 -12   29.90    9.80
   5   5 -11    4.60    6.10
   5   5 -11    8.10    4.00
   5   5 -11    4.50    3.90
   5  -5 -11    4.70    3.30
   5  -5 -11    6.60    7.20
  -5  -5  11    8.80    3.50
   5  -5 -11    8.20    4.70
   5   5 -10   34.20    8.30
   5   5 -10   43.80   12.50
  -5   5  10   42.50    6.50
   5   5 -10   36.30    8.30
   5  -5 -10   65.19   11.40
   5  -5 -10   46.90    7.70
   5  -5 -10   52.49    9.20
  -5  -5  10   42.00    7.30
   5   5  -9   69.69   11.90
   5   5  -9   58.79   10.90
  -5   5   9   77.19    9.20
   5   5  -9   85.89   10.80
   5   5  -9   60.79   14.80
   5  -5  -9   69.09   11.20
   5  -5  -9   94.29   11.10
  -5  -5   9   65.69   10.20
   5   5  -8    4.20    3.20
  -5   5   8    6.30    2.10
   5   5  -8    5.60    4.70
   5   5  -8    0.20    2.50
   5   5  -8    4.30    2.80
   5  -5  -8    4.90    2.60
   5  -5  -8    8.90    6.20
  -5  -5   8    1.10    2.10
  -5  -5   8    5.40    3.00
   5  -5  -8    3.00    3.10
   5   5  -7   79.69    9.80
  -5   5   7   49.20    7.70
   5   5  -7   61.69   10.10
   5   5  -7   56.99    9.50
  -5  -5   7   72.79    9.50
  -5  -5   7   55.49    8.60
   5  -5  -7   63.39    9.60
   5  -5  -7   58.59    8.60
  -5   5   6   19.90    3.80
   5   5  -6   19.80    3.50
   5   5  -6   25.20    5.60
   5   5  -6   27.80    4.90
   5   5  -6   31.10    5.60
   5   5  -6   25.30    5.50
   5  -5  -6   25.80    4.50
   5  -5  -6   47.70    7.80
  -5  -5   6   20.40    3.60
  -5  -5   6   20.80    4.50
   5  -5  -6   19.50    4.80
  -5  -5   6   24.10    5.00
   5   5  -5   24.30    4.50
   5   5  -5   25.20    5.10
   5   5  -5   26.30    5.10
  -5   5   5   24.90    3.90
   5  -5  -5   24.40    4.80
  -5  -5   5   21.80    3.60
  -5  -5   5   23.70    4.80
  -5  -5   5   19.20    4.00
   5   5  -4  108.59   12.40
   5   5  -4   83.59   12.80
  -5   5   4   97.29   11.60
   5   5  -4   91.29   12.20
   5  -5  -4  105.99   11.30
  -5  -5   4  102.09   11.40
   5  -5  -4   96.59   12.20
  -5  -5   4  102.49   12.50
  -5  -5   4   82.69   11.80
   5   5  -3    2.50    2.40
   5   5  -3    2.20    2.00
  -5   5   3    2.60    1.50
   5   5  -3    1.30    1.90
   5  -5  -3   -0.10    1.80
  -5  -5   3    2.30    2.10
   5  -5  -3    1.50    1.00
  -5  -5   3    4.30    2.00
  -5  -5   3    2.10    1.20
  -5   5   2   33.30    5.30
   5   5  -2   53.59    6.70
   5   5  -2   43.00    6.70
   5   5  -2   42.50    5.30
   5   5  -2   39.00    6.10
  -5  -5   2   38.10    6.30
  -5  -5   2   46.60    5.40
  -5  -5   2   31.70    5.80
   5  -5  -2   50.89    6.10
   5  -5  -2   34.00    5.30
   5   5  -1    4.90    2.10
   5   5  -1   10.20    3.10
  -5   5   1    4.50    1.70
   5   5  -1    7.60    2.50
  -5  -5   1    4.90    1.40
   5  -5  -1    6.30    1.80
   5  -5  -1    5.70    1.50
  -5  -5   1    6.40    2.50
   5  -5  -1    6.90    2.00
  -5  -5   1    7.60    2.20
  -5   5   0   31.80    4.30
   5   5   0   31.20    5.50
   5   5   0   33.10    5.30
  -5   5   0   29.10    6.30
   5  -5   0   22.40    4.30
  -5  -5   0   20.10    4.30
  -5  -5   0   33.40    3.90
   5  -5   0   28.40    4.10
  -5  -5   0   29.20    4.40
  -5  -5   0   35.50    5.30
   5   5   1   94.39   10.90
  -5   5  -1   75.69   10.40
  -5   5  -1   71.49    9.70
   5   5   1   89.29   10.50
   5  -5   1   82.89   10.20
   5  -5   1   81.99   10.00
  -5  -5  -1   88.59   10.50
  -5  -5  -1   83.89   10.10
  -5  -5  -1   89.99    9.50
  -5  -5  -1   76.89   10.10
  -5   5  -2    4.30    1.60
   5   5   2    5.20    2.60
   5   5   2    3.90    2.00
  -5   5  -2    5.40    2.40
   5  -5   2   -0.20    1.80
  -5  -5  -2    8.70    2.50
   5  -5   2    1.80    1.60
  -5  -5  -2    2.30    2.00
  -5   5  -3   36.20    5.30
   5   5   3   33.70    5.60
  -5   5  -3   40.60    6.60
  -5  -5  -3   32.20    5.90
  -5  -5  -3   39.50    5.80
   5  -5   3   45.00    5.60
   5  -5   3   30.60    5.60
  -5   5  -4    5.20    4.00
   5   5   4    4.80    2.00
  -5   5  -4    9.30    2.40
  -5   5  -4    3.50    2.90
  -5   5  -4    5.70    1.90
   5  -5   4    8.10    2.50
  -5  -5  -4    4.50    2.70
   5  -5   4    6.20    2.30
  -5  -5  -4    5.20    2.00
  -5   5  -5    6.00    2.20
  -5   5  -5    4.10    2.00
   5   5   5    6.10    2.20
  -5   5  -5    0.00    3.60
  -5   5  -5    1.70    2.60
   5  -5   5    2.90    1.90
  -5  -5  -5    7.30    3.10
   5  -5   5    5.80    2.70
  -5  -5  -5    5.60    2.00
   5   5   6    1.50    1.80
  -5   5  -6    2.40    2.20
  -5   5  -6    0.70    3.90
  -5   5  -6   -1.30    2.30
  -5   5  -6   -1.60    1.60
   5  -5   6   -3.90    1.60
   5  -5   6   -0.30    1.50
  -5  -5  -6   -2.20    1.40
  -5  -5  -6    2.00    3.00
   5   5   7  108.09   12.80
  -5   5  -7  118.09   14.60
  -5   5  -7  116.29   13.50
  -5   5  -7   79.19   14.30
  -5   5  -7   85.69   17.40
  -5   5  -7  110.29   14.00
  -5  -5  -7  110.99   12.80
   5  -5   7  101.49   12.90
   5  -5   7  121.79   13.40
  -5  -5  -7  101.39   14.80
   5   5   8  209.28   23.80
  -5   5  -8  211.98   24.90
  -5   5  -8  235.28   24.90
  -5   5  -8  157.78   24.90
  -5   5  -8  181.88   35.70
  -5   5  -8  221.98   24.90
  -5  -5  -8  225.98   24.00
   5  -5   8  203.18   23.90
  -5  -5  -8  183.28   25.20
   5  -5   8  225.88   24.50
  -5   5  -9    7.20    3.60
  -5   5  -9    2.90    3.60
  -5   5  -9    6.20    4.20
  -5   5  -9    4.50    3.40
  -5  -5  -9   19.80   11.10
  -5  -5  -9    5.20    2.80
   5  -5   9    1.80    2.30
  -5  -5  -9    5.80    4.00
  -5   5 -10   85.29   16.90
  -5   5 -10  122.69   17.30
  -5   5 -10  132.89   17.20
  -5  -5 -10  145.69   18.40
   5  -5  10  121.39   15.00
  -5  -5 -10  140.79   15.60
  -5   5 -11   73.09   12.50
  -5   5 -11   66.99   12.90
  -5  -5 -11   93.49   11.40
  -5  -5 -11   85.49   13.80
  -5   5 -12    9.20    5.70
  -5   5 -12    0.80    4.10
  -5  -5 -12    5.10    3.50
  -5  -5 -12    7.20   14.20
  -5  -5 -12    8.00    5.60
   5  -5  12    2.40    2.10
  -5   5 -13    9.30    5.00
  -5  -5 -13   15.70    6.50
  -5  -5 -13   21.40    5.40
   5  -5  13    8.80    3.00
  -5  -5 -13   53.39   19.00
   5   6 -14   42.90   14.60
   5   6 -14   42.10   10.20
   5  -6 -14   58.49    9.50
   5  -6 -14  100.49   16.10
  -5  -6  14   67.39    9.50
   5   6 -13   47.00    9.60
   5   6 -13   38.70    9.80
   5   6 -13   43.50   14.50
  -5  -6  13   61.99    9.00
   5  -6 -13   61.19    9.30
   5  -6 -13   75.79   14.50
   5   6 -12   24.00    6.00
   5   6 -12   13.80    8.30
   5   6 -12    8.40    4.80
   5  -6 -12    5.30    6.30
  -5  -6  12   16.50    4.50
   5  -6 -12   16.10    4.60
   5  -6 -12   25.70   10.30
   5   6 -11    0.80    3.00
   5   6 -11   -0.40    3.50
   5   6 -11    2.40    5.90
   5  -6 -11   -4.30    7.10
   5  -6 -11    0.10    2.70
   5  -6 -11    2.40    4.90
  -5  -6  11    7.40    3.20
   5   6 -10    5.20    3.60
   5   6 -10   -1.40    2.90
  -5   6  10   -1.30    1.70
   5   6 -10    0.90    4.80
   5  -6 -10   -1.40    4.10
   5  -6 -10   -3.60    7.00
  -5  -6  10    1.20    2.80
   5  -6 -10   -3.40    2.20
   5   6  -9   14.70    7.80
   5   6  -9    8.30    4.10
   5   6  -9   10.80    4.80
  -5   6   9   15.80    3.50
   5   6  -9   16.70    5.00
   5  -6  -9    8.00    4.80
   5  -6  -9   15.00    4.10
   5  -6  -9   25.10    8.50
  -5  -6   9   15.30    5.00
  -5  -6   9   21.40    4.60
   5   6  -8   27.90    6.50
  -5   6   8   26.40    5.00
   5   6  -8   27.90    6.20
   5   6  -8   24.90    6.80
  -5  -6   8   31.70    6.40
  -5  -6   8   29.90    5.90
   5  -6  -8   32.60    7.00
   5  -6  -8   29.40    5.70
   5  -6  -8   66.99   10.40
   5   6  -7   59.99   10.40
   5   6  -7   68.89   10.10
  -5   6   7   54.49    8.10
   5   6  -7   64.09   10.00
   5  -6  -7   57.49    9.70
  -5  -6   7   63.89    9.70
  -5  -6   7   68.49    9.40
   5   6  -6    0.40    2.90
  -5   6   6    2.70    1.90
   5   6  -6    1.90    2.60
   5   6  -6    3.60    2.90
   5   6  -6    6.40    3.20
  -5  -6   6    5.60    2.90
  -5  -6   6    3.70    2.60
   5  -6  -6    0.20    2.50
  -5   6   5    2.20    1.70
   5   6  -5   -1.40    2.30
   5   6  -5   -1.40    2.50
  -5  -6   5    4.20    2.90
   5  -6  -5    0.50    2.20
  -5  -6   5    2.50    2.20
   5   6  -4   -1.90    2.50
  -5   6   4    2.10    1.60
   5   6  -4    1.30    2.30
   5  -6  -4    1.30    2.10
  -5  -6   4   -0.10    2.20
  -5  -6   4   -0.70    1.90
  -5  -6   4    0.60    1.40
   5  -6  -4    1.80    1.10
   5   6  -3  234.48   26.60
   5   6  -3  196.18   26.70
  -5   6   3  213.48   25.70
  -5  -6   3  243.28   26.70
  -5  -6   3  245.98   25.50
   5  -6  -3  227.48   25.50
   5  -6  -3  219.08   26.10
  -5  -6   3  234.18   26.30
   5   6  -2  417.56   49.40
  -5   6   2  440.26   48.80
   5   6  -2  402.46   49.60
   5   6  -2  426.36   48.50
  -5  -6   2  436.76   49.50
   5  -6  -2  472.35   49.00
   5  -6  -2  445.76   48.70
  -5  -6   2  472.25   48.50
  -5  -6   2  419.46   49.20
   5   6  -1   -0.90    1.20
   5   6  -1    3.50    2.60
  -5   6   1    1.50    1.50
   5   6  -1    0.30    1.90
   5  -6  -1    4.20    2.10
  -5  -6   1    0.40    1.70
  -5  -6   1    1.80    1.10
   5  -6  -1    2.10    1.50
   5  -6  -1    0.10    1.20
  -5  -6   1   -1.00    1.60
   5   6   0  152.68   17.90
   5   6   0  144.79   17.50
  -5   6   0  135.29   16.60
  -5  -6   0  136.69   17.30
   5  -6   0  158.98   16.70
   5  -6   0  135.19   16.90
  -5  -6   0  138.69   17.00
  -5  -6   0  151.18   16.40
  -5   6  -1  172.28   20.90
   5   6   1  179.58   22.00
   5   6   1  186.38   21.70
  -5   6  -1  183.08   22.00
  -5  -6  -1  175.88   21.50
   5  -6   1  201.98   21.20
   5  -6   1  194.68   21.50
  -5  -6  -1  178.78   21.20
  -5   6  -2   22.80    3.60
   5   6   2   17.60    4.20
  -5   6  -2   15.60    4.40
   5   6   2   23.80    4.90
  -5  -6  -2   18.00    4.00
  -5  -6  -2   17.80    3.90
   5  -6   2   17.80    3.40
   5  -6   2   21.30    4.10
  -5   6  -3   24.10    5.50
   5   6   3   33.80    5.40
  -5   6  -3   22.00    4.20
   5  -6   3   33.30    5.20
  -5  -6  -3   28.00    5.20
  -5  -6  -3   28.00    4.80
   5  -6   3   26.20    4.60
  -5   6  -4    4.80    2.30
   5   6   4    4.30    2.20
  -5   6  -4    4.50    1.90
  -5   6  -4   -3.00    2.30
   5  -6   4    5.70    2.50
  -5  -6  -4   10.50    3.10
  -5  -6  -4    3.80    2.10
   5  -6   4    5.60    2.10
  -5   6  -5   17.40    4.90
  -5   6  -5   17.20    3.80
   5   6   5   19.20    4.10
  -5   6  -5   16.60    3.70
  -5  -6  -5   21.50    5.10
   5  -6   5   22.40    4.50
   5  -6   5   21.40    3.90
  -5   6  -6   52.59    7.90
  -5   6  -6   38.20    7.00
  -5   6  -6   34.90    8.10
  -5   6  -6   48.00    7.60
   5   6   6   55.79    7.50
   5  -6   6   60.09    8.00
   5  -6   6   50.29    7.40
  -5  -6  -6   62.89    9.10
  -5   6  -7    9.70    3.40
   5   6   7    9.90    2.80
  -5   6  -7   11.50    3.80
  -5   6  -7    7.30    3.40
  -5   6  -7    8.90    4.00
   5  -6   7    7.10    2.80
  -5  -6  -7    2.90    3.60
   5  -6   7   10.40    3.40
  -5   6  -8   -1.00    2.60
  -5   6  -8    0.40    2.90
   5   6   8   -0.60    1.80
  -5   6  -8   -1.60    2.70
  -5   6  -8    2.10    3.30
   5  -6   8   -2.00    2.00
  -5  -6  -8    3.30    3.70
   5  -6   8    4.00    2.40
  -5   6  -9   -0.40    3.30
  -5   6  -9    1.30    3.20
  -5   6  -9   -1.40    3.00
   5  -6   9   -3.70    2.10
  -5  -6  -9   -0.10    2.30
  -5  -6  -9   -0.70    3.50
  -5   6 -10   48.50    9.80
  -5   6 -10   38.00    8.10
  -5  -6 -10   70.19    8.70
   5  -6  10   39.30    6.90
  -5  -6 -10   42.50    9.20
  -5   6 -11  107.39   13.80
  -5   6 -11   57.49   12.80
  -5  -6 -11  110.99   12.10
  -5  -6 -11   64.19   13.00
  -5   6 -12    0.80    4.00
  -5  -6 -12   15.90    6.00
   5  -6  12    2.70    2.20
   5   7 -13   17.40    6.30
   5   7 -13   11.50    8.90
  -5  -7  13   20.10    5.10
   5   7 -12    6.40    8.30
   5   7 -12    5.70    4.60
  -5  -7  12   12.70    4.10
   5   7 -11   -3.10    5.30
   5   7 -11   -1.10    3.70
  -5   7  11   -0.50    2.20
  -5  -7  11   -1.00    3.00
   5   7 -10    0.90    3.30
   5   7 -10   -0.30    5.70
  -5   7  10   -1.30    1.80
   5  -7 -10    1.70    4.90
  -5  -7  10    3.70    3.00
  -5   7   9   -0.80    2.00
   5   7  -9   -1.90    2.80
   5   7  -9   -1.20    3.30
   5   7  -9    0.60    5.20
   5  -7  -9   -0.30    4.00
  -5  -7   9   -3.80    2.80
  -5  -7   9   -3.80    2.20
   5   7  -8   10.60    4.60
   5   7  -8    7.30    3.70
  -5   7   8    4.40    2.30
   5  -7  -8    4.70    4.50
  -5  -7   8    2.90    3.30
  -5  -7   8    3.30    3.20
   5   7  -7   -1.00    3.10
  -5   7   7   -1.20    1.50
   5   7  -7   -3.90    2.50
   5  -7  -7   -1.70    3.50
  -5  -7   7    2.20    3.10
  -5  -7   7   -1.20    2.40
   5   7  -6   20.00    4.70
   5   7  -6   16.20    4.90
  -5   7   6   14.70    3.40
   5   7  -6   14.90    4.90
  -5  -7   6   13.20    4.60
   5  -7  -6   12.00    4.40
  -5  -7   6    8.50    3.80
   5   7  -5    5.20    3.60
  -5   7   5    4.40    2.20
   5   7  -5   -0.40    2.60
   5  -7  -5    2.00    2.90
  -5  -7   5    4.20    3.10
  -5  -7   5    3.10    2.60
   5   7  -4  187.38   23.30
  -5   7   4  204.28   22.70
   5   7  -4  194.98   24.00
  -5  -7   4  193.58   23.70
   5  -7  -4  207.78   23.40
  -5  -7   4  196.28   23.30
   5  -7  -4  190.98   22.10
   5   7  -3  445.26   56.49
  -5   7   3  509.15   55.49
   5   7  -3  509.55   56.29
   5  -7  -3  506.05   55.19
   5  -7  -3  502.95   55.99
  -5  -7   3  511.75   56.09
  -5  -7   3  494.55   56.39
   5   7  -2  144.19   18.40
   5   7  -2  143.19   18.90
  -5   7   2  146.29   17.50
   5   7  -2  161.58   17.30
  -5  -7   2  142.89   18.40
   5  -7  -2  163.18   18.00
  -5  -7   2  162.38   18.20
   5  -7  -2  135.49   17.40
  -5   7   1    2.30    1.80
   5   7  -1    0.30    2.10
   5   7  -1    0.30    1.60
   5   7  -1    0.20    3.10
  -5  -7   1   -1.00    2.20
  -5  -7   1    1.70    2.20
   5  -7  -1    0.40    2.00
   5  -7  -1    1.70    1.70
  -5   7   0    6.00    2.00
   5   7   0    5.90    3.30
   5   7   0    7.00    2.30
   5   7   0    4.30    2.80
  -5  -7   0   -1.00    2.20
   5  -7   0    9.30    2.80
   5  -7   0    4.10    1.90
   5  -7   0    6.30    2.30
   5   7   1   95.69   13.10
   5   7   1   93.89   11.20
  -5   7  -1   89.19   11.10
   5   7   1   87.89   12.40
   5  -7   1   87.49   11.10
   5  -7   1   79.99   11.80
  -5  -7  -1  108.09   12.10
   5   7   2    3.80    2.60
   5   7   2    1.10    3.20
  -5   7  -2    8.80    2.40
  -5  -7  -2    6.00    2.70
   5  -7   2    3.20    2.50
  -5  -7  -2    2.60    2.30
   5  -7   2    3.70    2.10
   5   7   3   22.20    4.60
  -5   7  -3   10.30    3.10
  -5   7  -3   19.80    4.90
  -5  -7  -3   18.30    4.30
   5  -7   3   16.00    3.50
  -5  -7  -3   24.90    4.20
   5  -7   3   19.50    4.20
  -5   7  -4   -0.30    2.40
  -5   7  -4    3.40    1.90
   5   7   4   -1.60    1.80
  -5  -7  -4    1.60    2.80
   5  -7   4    3.60    2.20
  -5  -7  -4    3.40    2.00
   5  -7   4    2.20    2.60
  -5   7  -5   10.70    3.10
  -5   7  -5    6.40    3.90
  -5   7  -5    6.60    2.70
   5   7   5    2.10    2.30
   5  -7   5   -0.50    2.40
  -5  -7  -5    3.40    3.10
   5  -7   5   14.10    3.40
  -5   7  -6    9.80    3.20
  -5   7  -6    6.70    3.30
  -5   7  -6   12.20    4.40
   5   7   6   11.00    3.40
  -5   7  -6    9.80    3.10
   5  -7   6    1.80    2.50
  -5  -7  -6   13.70    4.40
   5  -7   6   11.00    3.60
  -5   7  -7   57.19   11.60
  -5   7  -7   77.69   11.00
  -5   7  -7  101.59   11.70
  -5   7  -7   79.89   11.40
   5   7   7   93.19   10.80
   5  -7   7   72.69   10.80
  -5  -7  -7   63.49   11.30
   5  -7   7   66.49   10.20
  -5   7  -8   29.40    6.40
  -5   7  -8   36.90    6.40
  -5   7  -8   22.60    6.60
   5  -7   8   24.50    5.10
   5  -7   8   34.90    6.30
  -5  -7  -8   29.00    6.90
  -5   7  -9    2.50    3.50
  -5   7  -9    4.60    4.10
   5  -7   9    1.90    2.70
   5  -7   9   -0.60    2.10
  -5  -7  -9   -1.00    3.60
  -5   7 -10   -2.20    3.80
  -5   7 -10   -5.80    3.20
  -5  -7 -10   -2.80    3.70
   5  -7  10    3.60    2.70
  -5   7 -11    2.40    4.20
  -5  -7 -11    0.30    4.70
   5  -7  11   -0.70    2.30
   5   8 -12   13.60    6.00
   5   8 -12    8.80    8.20
  -5  -8  12   20.40    5.10
   5   8 -11   -2.90    6.00
   5   8 -11    3.20    4.90
  -5   8  11   -4.90    2.00
  -5  -8  11   -2.20    3.10
   5   8 -10   -2.40    3.70
  -5   8  10   -1.50    2.20
   5   8 -10    2.00    6.80
  -5  -8  10    2.50    3.50
  -5  -8  10   -1.70    2.90
   5   8  -9   15.90    6.00
   5   8  -9    6.80    8.10
  -5   8   9   17.00    4.00
  -5  -8   9   17.00    5.20
  -5  -8   9   18.80    5.10
  -5   8   8   23.10    4.50
   5   8  -8   13.40    5.70
   5   8  -8   31.00    6.70
  -5  -8   8   25.30    6.30
  -5  -8   8   22.60    5.40
   5   8  -7   -0.10    3.30
  -5   8   7    6.20    2.70
   5   8  -7    4.00    4.20
   5  -8  -7   10.30    5.10
  -5  -8   7    9.30    4.20
  -5  -8   7    1.70    3.10
   5   8  -6   -1.20    3.40
   5   8  -6   -0.70    3.30
   5   8  -6   -1.00    3.00
  -5   8   6   -2.60    1.70
  -5  -8   6    0.10    3.00
   5  -8  -6   -2.50    3.70
  -5  -8   6    4.10    3.40
   5   8  -5   -1.30    3.20
  -5   8   5    4.20    2.40
   5   8  -5    1.70    3.30
  -5  -8   5    8.30    3.90
   5  -8  -5    1.80    3.80
  -5  -8   5    2.00    2.90
  -5   8   4  130.09   16.70
   5   8  -4  127.99   18.80
   5   8  -4  148.49   17.80
  -5  -8   4  163.28   17.90
   5  -8  -4  139.49   17.90
  -5  -8   4  134.39   18.60
   5   8  -3  109.99   17.00
   5   8  -3  140.29   17.00
  -5   8   3  119.59   14.90
   5  -8  -3  129.69   15.70
  -5  -8   3  136.39   15.80
  -5  -8   3  117.49   16.70
   5  -8  -3  116.39   14.40
   5   8  -2    3.40    3.80
   5   8  -2    3.00    3.20
  -5   8   2    3.70    2.40
  -5  -8   2    2.80    2.90
  -5  -8   2    0.60    3.20
   5  -8  -2    1.10    2.50
   5  -8  -2    1.60    1.80
   5   8  -1    3.50    3.00
   5   8  -1    2.60    3.50
   5   8  -1    0.50    1.90
  -5   8   1    2.40    1.90
   5  -8  -1    6.20    2.40
   5  -8  -1    0.90    2.50
  -5  -8   1    3.00    3.20
   5   8   0   18.20    3.40
   5   8   0    4.00    4.20
  -5   8   0    7.30    2.60
   5   8   0    4.60    3.40
  -5  -8   0   10.50    3.80
   5  -8   0   16.40    3.70
   5  -8   0   11.20    3.10
   5   8   1    3.40    3.20
   5   8   1    1.80    3.40
  -5   8  -1    3.90    2.20
   5   8   1    2.80    2.30
   5  -8   1    1.80    1.90
  -5  -8  -1    3.00    2.70
   5  -8   1    4.40    3.10
   5  -8   1    0.80    2.10
   5   8   2   58.39    9.50
  -5   8  -2   63.29    8.50
   5   8   2   68.49    9.00
   5  -8   2   71.19    9.30
   5  -8   2   51.49    8.30
  -5  -8  -2   59.49    9.10
   5   8   3   10.60    3.60
  -5   8  -3    5.30    2.50
   5   8   3   10.10    3.30
   5  -8   3   10.20    3.20
  -5  -8  -3   14.10    3.70
   5  -8   3    8.00    2.90
  -5  -8  -3    1.60    2.30
  -5   8  -4    2.20    2.00
   5   8   4   -0.80    2.20
   5  -8   4   -0.20    2.20
   5  -8   4    3.00    2.40
  -5  -8  -4    2.60    2.60
  -5   8  -5    0.00    2.10
  -5   8  -5    0.90    3.50
  -5   8  -5   -1.50    2.60
   5   8   5   -0.20    2.30
  -5  -8  -5    0.50    3.00
   5  -8   5    3.50    2.60
   5  -8   5    3.40    2.90
  -5   8  -6   -1.70    2.30
  -5   8  -6    5.20    3.00
   5   8   6   -1.90    2.20
  -5   8  -6    2.00    3.60
   5  -8   6   -4.30    2.20
   5  -8   6    7.10    2.70
  -5  -8  -6    3.90    3.40
  -5   8  -7   28.80    7.70
   5   8   7   42.60    6.80
  -5   8  -7   44.90    7.30
   5  -8   7   42.80    6.70
  -5  -8  -7   34.40    7.60
   5  -8   7   50.89    7.80
  -5   8  -8   -2.90    3.00
  -5   8  -8    1.00    3.20
   5  -8   8    5.90    3.30
  -5  -8  -8    1.60    3.60
   5  -8   8    0.90    2.40
  -5   8  -9   -2.30    3.60
  -5   8  -9    0.10    3.60
  -5  -8  -9   -2.20    3.30
   5  -8   9   -0.90    2.30
   5  -8   9    0.00    2.80
  -5   8 -10    3.70    5.00
  -5  -8 -10    9.60    5.40
   5  -8  10   10.20    3.60
   5   9 -10    7.20    4.60
   5   9 -10    0.50    7.30
  -5   9  10    1.90    2.80
  -5  -9  10    4.30    3.30
  -5  -9  10   -5.30    3.60
   5   9  -9   12.80    9.80
   5   9  -9   18.70    7.40
  -5   9   9   25.90    4.80
  -5  -9   9   28.20    6.30
  -5  -9   9   15.50    5.20
   5   9  -8   -5.60    3.00
   5   9  -8    4.10    4.30
  -5   9   8   -1.50    2.20
  -5  -9   8    0.70    3.00
  -5  -9   8    0.40    3.60
  -5   9   7   18.90    4.10
   5   9  -7    9.70    5.90
   5   9  -7   23.80    6.30
  -5  -9   7    9.00    4.20
  -5  -9   7   14.00    5.20
   5   9  -6    6.40    4.40
   5   9  -6    4.50    4.70
   5   9  -6   -1.90    3.60
  -5   9   6    3.00    2.40
  -5  -9   6    8.50    4.20
  -5  -9   6    4.30    3.50
   5   9  -5   -0.90    3.70
  -5   9   5   -1.70    2.00
   5   9  -5   -1.00    3.70
   5   9  -5   -2.70    3.10
  -5  -9   5    0.50    3.10
  -5  -9   5    1.00    3.20
   5   9  -4   27.30    6.20
   5   9  -4   34.70    7.60
  -5   9   4   24.70    4.90
  -5  -9   4   21.90    6.10
   5  -9  -4   30.60    7.30
  -5  -9   4   31.40    6.10
   5   9  -3   12.00    4.20
   5   9  -3    3.70    4.50
  -5   9   3   14.70    3.40
  -5  -9   3   15.30    4.50
  -5  -9   3    7.70    4.30
   5  -9  -3    9.80    4.50
   5  -9  -3   14.20    3.00
   5   9  -2   15.70    4.90
   5   9  -2   17.90    5.60
  -5   9   2    9.80    3.20
   5  -9  -2   10.40    3.00
   5  -9  -2   19.70    5.10
  -5  -9   2    7.80    4.50
   5   9  -1   -2.50    2.10
   5   9  -1    1.40    3.10
  -5   9   1    0.30    2.20
   5   9  -1    0.80    3.70
   5  -9  -1    1.80    3.10
  -5  -9   1   -2.70    2.80
   5  -9  -1    2.80    2.30
  -5   9   0    3.30    2.30
   5   9   0    4.50    2.70
   5   9   0    1.40    3.40
   5   9   0   -5.00    2.90
   5  -9   0    4.50    3.10
   5  -9   0    1.70    2.30
  -5  -9   0    0.70    2.90
   5   9   1   -0.10    2.80
   5   9   1    0.50    2.20
   5   9   1    0.70    3.60
  -5   9  -1    0.90    2.10
   5  -9   1    0.60    2.30
   5  -9   1    1.70    2.90
  -5  -9  -1    1.30    2.90
  -5   9  -2   36.70    5.70
   5   9   2   27.50    6.20
   5   9   2   42.40    6.20
   5  -9   2   16.20    5.10
  -5  -9  -2   30.60    5.90
   5  -9   2   47.90    6.70
  -5   9  -3   10.60    3.30
   5   9   3   11.30    3.60
   5   9   3    6.80    3.70
   5  -9   3    5.00    3.40
   5  -9   3    7.90    4.20
   5  -9   3    5.50    2.80
   5   9   4   -0.60    2.70
   5   9   4   -1.50    2.20
  -5   9  -4   -3.20    2.00
  -5  -9  -4    1.10    3.70
   5  -9   4    0.30    2.50
   5  -9   4    0.50    2.10
  -5   9  -5   -0.60    2.70
   5   9   5    0.10    2.40
   5   9   5    2.30    3.20
  -5  -9  -5    2.30    3.00
   5  -9   5    3.20    3.00
   5  -9   5    3.60    2.50
  -5   9  -6   54.19    8.60
   5   9   6   42.80    7.80
   5   9   6   58.49    8.80
  -5  -9  -6   48.40    8.50
   5  -9   6   54.89    8.10
   5  -9   6   59.19    9.00
   5   9   7   33.10    6.10
   5   9   7   24.10    5.30
  -5   9  -7   30.10    6.20
   5  -9   7   29.10    6.20
   5  -9   7   30.80    5.60
  -5  -9  -7   30.50    6.40
  -5   9  -8    4.00    4.00
   5   9   8   -5.00    2.60
   5  -9   8   -0.80    2.40
   5  -9   8   -1.00    3.10
  -5  -9  -8    5.10    4.10
  -5   9  -9   -4.00    6.10
  -5  10   8   -1.90    2.30
   5  10  -8    2.80    5.10
  -5 -10   8   -1.80    3.20
  -5 -10   8    2.70    3.90
  -5  10   7   -0.30    2.60
   5  10  -7    8.30    5.10
   5  10  -7   -5.20    4.50
  -5 -10   7   -2.70    3.20
  -5 -10   7   -7.70    2.90
   5  10  -6   -1.40    4.40
  -5  10   6   -1.30    2.30
   5  10  -6   -3.20    4.10
   5  10  -6   -2.70    4.60
  -5 -10   6    7.50    4.10
  -5 -10   6    1.10    3.60
   5  10  -5   -2.90    4.20
   5  10  -5    1.50    4.30
   5  10  -5   -2.80    3.80
  -5  10   5    3.30    2.60
  -5 -10   5   -0.20    3.60
  -5 -10   5    3.60    3.50
   5  10  -4   50.19    9.60
  -5  10   4   47.60    8.10
   5  10  -4   64.49   11.00
  -5 -10   4   61.29    9.70
  -5 -10   4   59.39   10.00
   5  10  -3    7.30    4.70
   5  10  -3    4.90    4.00
  -5  10   3   -0.50    2.40
  -5 -10   3    0.70    3.70
   5  10  -2   14.70    5.40
  -5  10   2    0.00    2.60
   5  10  -2   12.30    4.60
   5 -10  -2   13.40    3.10
  -5 -10   2   -0.80    2.90
  -5  10   1   -3.10    2.20
   5  10  -1    2.90    3.60
   5  10  -1   -7.20    4.30
   5 -10  -1   10.10    4.60
  -5 -10   1    0.00    3.10
   5 -10  -1   -1.10    2.00
  -5  10   0   -0.10    2.30
   5  10   0   -1.40    3.10
   5  10   0   -0.70    2.50
   5  10   0    0.30    4.60
   5 -10   0   -2.10    3.70
   5 -10   0    1.00    2.50
  -5 -10   0   -2.50    2.90
  -5  10  -1  100.19   13.90
   5  10   1  114.59   13.70
   5  10   1  119.69   15.60
   5 -10   1   94.19   14.10
   5 -10   1  138.89   15.60
  -5 -10  -1   98.09   14.50
   5  10   2   23.80    5.80
  -5  10  -2   19.70    4.70
   5  10   2   29.90    5.50
   5 -10   2   38.60    6.50
  -5 -10  -2   19.70    5.00
   5 -10   2   24.00    5.30
   5  10   3    3.30    2.90
  -5  10  -3    1.00    2.70
   5  10   3    1.70    3.30
   5 -10   3    5.80    3.80
   5 -10   3    0.50    2.80
   5  10   4   -1.20    2.70
  -5  10  -4    2.50    3.00
   5  10   4   -0.30    2.70
   5 -10   4    9.40    3.60
   5 -10   4   -2.10    3.40
   5 -10   4    1.70    2.70
   5  10   5    4.10    3.10
   5  10   5   -3.30    3.00
  -5  10  -5    0.70    3.40
   5 -10   5    1.40    2.50
   5 -10   5   -7.10    4.10
   5 -10   5    4.00    3.30
   5  10   6   14.00    4.40
   5  10   6   17.00    4.70
  -5  10  -6   20.50    5.20
   5 -10   6   20.30    4.40
   5 -10   6   14.40    4.70
  -5  10  -7   61.69   10.00
   5  11  -5    4.90    6.30
   5  11  -5   22.40    6.40
  -5  11   5    3.50    3.10
  -5 -11   5   -0.90    4.20
   5  11  -4    0.50    3.80
  -5  11   4   -5.50    2.10
   5  11  -4   -6.00    4.50
   5  11  -4    0.00    5.00
  -5 -11   4    9.00    4.90
   5  11  -3   37.10    7.60
   5  11  -3   27.10    7.60
  -5  11   3   21.10    4.90
  -5 -11   3   22.20    6.30
  -5  11   2   19.70    4.40
   5  11  -2   10.90    5.30
   5  11  -2   11.70    6.10
  -5 -11   2   12.90    5.10
   5  11  -1    2.10    3.80
  -5  11   1   -2.10    2.50
   5  11  -1    2.70    5.40
  -5 -11   1    1.90    3.40
   5 -11  -1    0.10    2.20
  -5  11   0    2.30    2.70
   5  11   0   -2.40    3.80
   5  11   0    9.10    6.90
   5 -11   0   -0.50    2.60
  -5 -11   0   -3.00    3.40
  -5  11  -1   34.70    5.80
   5  11   1   24.30    6.30
  -5 -11  -1   24.30    6.10
   5 -11   1   21.50    5.20
   5  11   2   58.79    8.40
   5  11   2   50.29    9.10
  -5  11  -2   54.19    8.50
   5 -11   2   49.80    8.30
   5  11   3    5.30    3.70
   5  11   3   11.10    4.50
  -5  11  -3    4.10    3.60
   5 -11   3   11.70    7.20
   5 -11   3    6.70    3.60
   6   0 -16    0.80    5.40
   6   0 -16   -3.20    5.60
   6   0 -16   -1.60    5.90
   6   0 -15   -0.90    5.70
   6   0 -15    4.40    5.90
   6   0 -15   -4.80    4.60
   6   0 -14    5.40    5.10
   6   0 -14    4.40    5.20
   6   0 -14    5.90    5.80
   6   0 -13   -2.70    2.60
   6   0 -13   -0.50    3.90
   6   0 -13    4.20    4.40
   6   0 -13   -0.20    4.30
   6   0 -12  134.19   18.90
   6   0 -12  161.28   21.50
   6   0 -12  171.18   23.00
   6   0 -12  197.88   21.10
   6   0 -11   -2.00    3.00
   6   0 -11    5.30    3.80
   6   0 -11   -1.00    3.10
   6   0 -11   -0.30    2.00
   6   0 -10   14.50    4.50
   6   0 -10   11.90    5.30
  -6   0  10   12.60    2.60
   6   0 -10   13.10    3.40
   6   0 -10    8.70    4.10
   6   0  -9    0.90    3.00
   6   0  -9   -3.70    2.10
   6   0  -9    0.10    1.20
   6   0  -9    1.30    2.50
  -6   0   9    0.80    1.30
  -6   0   9   -0.50    1.10
   6   0  -8   44.10    7.90
   6   0  -8   52.69    8.10
  -6   0   8   42.50    6.10
   6   0  -8   44.20    9.30
   6   0  -8   47.10    6.90
  -6   0   8   52.79    6.00
   6   0  -7    0.40    1.00
   6   0  -7    1.50    2.40
   6   0  -7   -1.10    1.10
   6   0  -7   -0.50    2.10
   6   0  -7   -3.20    1.60
  -6   0   7    0.30    0.90
   6   0  -6  353.26   36.20
   6   0  -6  298.17   36.70
  -6   0   6  323.97   35.10
   6   0  -6  268.77   35.50
   6   0  -6  356.66   35.20
   6   0  -5   -0.60    1.00
  -6   0   5    0.90    0.90
   6   0  -5   -0.30    1.60
   6   0  -5    0.70    1.50
   6   0  -5   -0.60    1.60
   6   0  -4   59.69    7.70
  -6   0   4   49.40    6.30
   6   0  -4   58.19    6.70
   6   0  -4   48.10    7.20
   6   0  -3   -0.90    1.00
  -6   0   3   -0.50    0.70
   6   0  -3    1.50    1.10
   6   0  -3    0.80    1.20
   6   0  -2 2221.28  264.87
  -6   0   2 2392.56  264.57
   6   0  -2 2413.86  264.97
   6   0  -2 2712.23  265.27
  -6   0   1    0.60    0.70
   6   0  -1    0.60    1.00
   6   0  -1    0.50    0.70
  -6   0   1    0.00    0.40
   6   0   0  132.29   15.40
   6   0   0  142.69   15.20
  -6   0   0  125.69   15.00
  -6   0   0  133.19   15.30
  -6   0   0  147.39   15.00
  -6   0   0  124.79   15.20
  -6   0  -1    0.50    0.80
  -6   0  -1    0.20    0.40
   6   0   1   -0.30    0.60
   6   0   1   -0.60    0.70
  -6   0  -1   -0.20    0.90
  -6   0  -1    0.20    0.90
  -6   0  -2   47.90    5.80
  -6   0  -2   35.90    5.40
   6   0   2   34.00    5.10
  -6   0  -2   39.30    4.80
  -6   0  -2   39.70    5.20
   6   0   2   38.00    4.80
  -6   0  -3    1.50    1.60
  -6   0  -3   -1.00    1.20
   6   0   3   -0.60    1.00
  -6   0  -3   -1.40    1.10
  -6   0  -3   -0.70    1.10
   6   0   3    0.70    0.80
  -6   0  -4  396.56   41.40
  -6   0  -4  315.47   41.00
  -6   0  -4  392.66   41.60
  -6   0  -4  363.26   41.50
  -6   0  -4  353.86   41.60
   6   0   4  363.46   40.90
   6   0   4  420.06   41.30
  -6   0  -5    0.80    1.90
   6   0   5   -2.40    1.00
  -6   0  -5   -0.10    2.10
  -6   0  -5   -1.00    2.20
   6   0   5    0.40    1.10
  -6   0  -5    1.40    1.80
  -6   0  -5    0.20    1.70
  -6   0  -6   11.60    4.10
  -6   0  -6   13.00    3.40
  -6   0  -6   18.40    4.00
  -6   0  -6   18.70    4.10
   6   0   6   13.50    2.50
  -6   0  -6    9.20    3.10
  -6   0  -7    3.30    2.40
  -6   0  -7    0.60    3.10
  -6   0  -7   -1.10    2.00
  -6   0  -7    2.10    2.70
  -6   0  -7    1.40    2.40
   6   0   7   -0.80    1.20
   6   0   8   43.00    5.70
  -6   0  -8   39.30    8.50
  -6   0  -8   36.20    7.60
  -6   0  -8   36.00    7.00
  -6   0  -8   48.80    7.30
  -6   0  -9   -2.90    2.30
  -6   0  -9    1.50    3.40
   6   0   9    1.80    1.30
  -6   0  -9    1.10    3.50
  -6   0  -9   -1.80    3.60
  -6   0 -10    2.80    4.00
  -6   0 -10    0.90    3.40
  -6   0 -10   -1.70    4.50
   6   0  10    3.30    1.80
  -6   0 -10   -1.90    3.40
  -6   0 -11   -1.90    3.20
  -6   0 -11   -0.50    5.90
  -6   0 -11    0.30    4.00
  -6   0 -11    0.40    4.00
   6   0  11    2.10    1.70
  -6   0 -12   41.70    9.70
  -6   0 -12   53.49    9.90
  -6   0 -12   48.50   12.10
  -6   0 -13   -6.20    7.30
  -6   0 -13   -3.00    4.60
  -6   0 -13   -3.90    4.30
  -6   0 -14    5.80    5.20
  -6   0 -14   -4.60    5.90
   6   1 -16    5.20    6.30
   6   1 -16   -6.90    6.00
   6   1 -16   -0.40    5.60
   6  -1 -16   -9.30    5.80
   6  -1 -16   -0.70    6.30
   6  -1 -16    8.20    6.80
   6   1 -15   -5.30    4.50
   6   1 -15    5.00    6.20
   6   1 -15    3.70    5.70
   6  -1 -15    8.60    5.90
   6  -1 -15   -0.80    5.80
   6  -1 -15   10.00    5.70
   6   1 -14   -7.10    3.70
   6   1 -14   -2.70    3.90
   6   1 -14   -1.40    4.50
   6   1 -14    0.00    2.90
   6  -1 -14    3.60    4.90
   6  -1 -14   -2.00    4.00
   6  -1 -14    0.20    5.40
   6   1 -13    7.50    6.60
   6   1 -13   -1.50    2.60
   6   1 -13   -1.90    4.00
   6   1 -13   -1.90    4.10
   6  -1 -13    1.40    4.40
   6  -1 -13   -0.90    4.60
   6  -1 -13   -3.80    3.30
   6   1 -12  230.68   33.50
   6   1 -12  269.87   31.30
   6   1 -12  220.78   29.90
   6   1 -12  274.17   31.10
   6  -1 -12  253.17   32.60
   6  -1 -12  334.97   31.90
   6  -1 -12  272.97   31.20
   6   1 -11  125.19   14.50
   6   1 -11   87.89   16.70
   6   1 -11   77.49   12.20
   6   1 -11  106.99   14.50
   6  -1 -11   69.19   12.50
   6  -1 -11   93.69   13.90
  -6  -1  11   79.69   10.50
   6  -1 -11   94.19   13.80
   6   1 -10    6.50    3.60
   6   1 -10    3.30    2.20
   6   1 -10    4.30    3.30
   6   1 -10    1.90    3.80
  -6  -1  10    6.70    2.10
   6  -1 -10    2.60    3.30
   6  -1 -10    7.00    3.50
   6  -1 -10    3.50    3.20
   6   1  -9   -0.80    3.00
  -6   1   9    2.00    1.10
   6   1  -9   -1.60    2.20
  -6   1   9    2.40    1.40
   6   1  -9   -1.00    2.60
   6   1  -9   -1.70    1.50
   6  -1  -9    4.70    3.10
  -6  -1   9   -1.00    1.20
   6  -1  -9    0.30    2.30
   6  -1  -9    3.90    2.90
  -6  -1   9    1.20    1.10
   6   1  -8   24.00    5.30
   6   1  -8   27.00    5.80
   6   1  -8   32.70    7.60
  -6   1   8   24.50    4.00
   6   1  -8   26.60    4.90
  -6  -1   8   29.40    4.10
   6  -1  -8   33.50    5.90
   6  -1  -8   23.50    6.00
   6  -1  -8   35.10    6.10
  -6  -1   8   30.00    4.30
   6   1  -7   97.29   13.60
   6   1  -7   88.79   12.10
   6   1  -7   95.79   12.70
   6   1  -7  111.29   11.80
  -6   1   7   99.59   11.70
   6   1  -7   96.39   14.20
   6  -1  -7   96.49   13.20
   6  -1  -7  107.49   11.70
  -6  -1   7  110.59   11.80
  -6  -1   7   90.09   11.60
   6  -1  -7  106.09   12.90
   6  -1  -7  108.49   13.00
   6   1  -6   94.09   10.80
   6   1  -6   79.49   11.80
   6   1  -6   83.69   12.50
  -6   1   6   93.69   10.60
   6   1  -6   84.29   12.20
   6   1  -6   77.69   10.90
   6  -1  -6  100.19   10.40
  -6  -1   6  116.29   11.50
   6  -1  -6  102.69   11.70
  -6  -1   6   89.39   10.50
   6  -1  -6   93.99   11.60
  -6  -1   6   85.59   10.60
   6  -1  -6   88.79   11.80
   6   1  -5   -0.50    1.70
   6   1  -5    0.10    1.70
   6   1  -5    1.90    1.30
   6   1  -5    1.70    2.20
  -6   1   5    2.50    1.00
   6   1  -5    0.70    1.30
  -6  -1   5    2.80    1.20
   6  -1  -5    0.40    1.50
   6  -1  -5    1.20    1.60
   6  -1  -5    1.20    1.00
   6  -1  -5    1.90    1.90
  -6   1   4    9.20    1.80
   6   1  -4    8.40    2.60
   6   1  -4    9.50    3.60
   6   1  -4    7.00    2.10
   6   1  -4    8.50    2.20
   6  -1  -4    8.70    2.30
   6  -1  -4    8.10    2.00
  -6  -1   4    9.60    1.70
   6  -1  -4   12.10    2.70
  -6   1   3   70.19    8.30
   6   1  -3   72.69    8.90
   6   1  -3   69.69    9.50
   6   1  -3   63.29    8.70
   6   1  -3   81.19    8.70
   6  -1  -3   73.59    8.60
   6  -1  -3   69.79    8.80
   6  -1  -3   68.89    8.80
  -6  -1   3   77.69    8.40
   6   1  -2   38.70    4.50
  -6   1   2   24.20    3.60
   6   1  -2   26.30    3.60
   6   1  -2   26.50    4.40
   6  -1  -2   34.10    4.20
  -6  -1   2   27.10    3.60
   6  -1  -2   25.80    4.00
   6   1  -1   68.19    9.00
   6   1  -1   76.49    9.20
  -6   1   1   77.49    8.80
  -6   1   1   80.19    8.70
   6  -1  -1   75.89    9.00
  -6  -1   1   72.69    8.40
  -6  -1   1   78.19    8.60
   6  -1  -1   84.89    8.90
   6  -1  -1   71.89    8.70
   6   1   0    5.60    1.50
  -6   1   0    6.80    1.40
   6   1   0    5.30    1.70
  -6   1   0    4.10    1.40
  -6  -1   0    4.10    1.00
  -6  -1   0    4.30    1.50
   6  -1   0    8.10    1.40
   6  -1   0   19.70    2.30
  -6  -1   0    4.90    1.00
   6  -1   0    4.50    1.20
  -6  -1   0    4.50    1.50
  -6   1  -1    3.70    1.40
   6   1   1    1.50    1.00
  -6   1  -1    1.70    0.50
   6   1   1    1.20    1.10
  -6   1  -1    0.70    1.00
   6  -1   1    0.60    1.10
  -6  -1  -1    2.20    0.50
  -6  -1  -1    2.90    1.30
  -6  -1  -1    1.00    0.80
   6  -1   1   -0.30    1.30
  -6  -1  -1    2.40    1.40
  -6   1  -2  677.93   70.79
  -6   1  -2  681.73   70.89
  -6   1  -2  666.13   70.89
   6   1   2  638.34   70.79
  -6   1  -2  606.94   70.09
   6   1   2  648.94   70.59
   6  -1   2  642.74   70.49
  -6  -1  -2  606.14   70.79
   6  -1   2  664.53   70.69
  -6  -1  -2  697.93   70.39
  -6  -1  -2  603.44   70.89
  -6  -1  -2  583.44   70.49
  -6   1  -3  668.43   77.19
   6   1   3  720.93   77.09
   6   1   3  690.83   76.89
  -6   1  -3  712.93   77.29
  -6   1  -3  726.03   76.39
  -6   1  -3  740.33   77.29
   6  -1   3  746.53   77.09
  -6  -1  -3  698.53   77.39
  -6  -1  -3  638.54   76.89
  -6  -1  -3  665.83   77.29
   6  -1   3  707.63   76.89
  -6  -1  -3  685.53   76.69
   6   1   4   45.60    5.60
  -6   1  -4   33.50    6.10
  -6   1  -4   40.00    6.50
  -6   1  -4   49.20    6.60
  -6   1  -4   45.60    6.50
  -6   1  -4   39.90    6.10
   6   1   4   39.10    5.90
  -6  -1  -4   47.10    6.20
  -6  -1  -4   47.80    6.90
  -6  -1  -4   49.80    6.80
   6  -1   4   39.10    5.80
   6  -1   4   39.50    5.60
  -6  -1  -4   54.79    5.90
  -6   1  -5   46.10    8.30
  -6   1  -5   58.29    9.00
  -6   1  -5   59.49    8.80
  -6   1  -5   57.99    9.00
  -6   1  -5   78.39    9.30
   6   1   5   65.49    7.60
  -6  -1  -5   60.59    9.10
   6  -1   5   65.09    7.90
  -6  -1  -5   62.69    8.00
  -6  -1  -5   71.99    9.30
   6  -1   5   63.79    7.60
  -6  -1  -5   64.59    8.50
  -6   1  -6    5.60    2.90
  -6   1  -6   10.20    3.20
  -6   1  -6    5.30    2.50
   6   1   6    5.50    1.70
  -6   1  -6   10.80    4.10
  -6   1  -6    5.90    2.60
  -6  -1  -6    4.10    3.00
  -6  -1  -6    8.60    2.60
   6  -1   6    5.40    1.70
  -6  -1  -6    8.70    3.90
  -6  -1  -6    9.80    2.80
  -6   1  -7   -0.20    2.40
  -6   1  -7   -0.10    2.30
  -6   1  -7    2.30    2.20
  -6   1  -7    4.10    3.70
   6   1   7    0.30    1.30
  -6   1  -7    1.50    2.60
  -6  -1  -7    0.10    2.70
  -6  -1  -7    1.80    2.40
  -6  -1  -7    3.60    2.80
  -6  -1  -7    3.50    3.80
   6  -1   7    4.30    1.60
  -6   1  -8    2.80    3.10
  -6   1  -8    1.30    4.00
  -6   1  -8   -0.60    2.80
  -6   1  -8    0.60    2.60
   6   1   8    0.80    1.20
  -6   1  -8    2.70    3.10
  -6   1  -8    2.00    1.90
  -6  -1  -8    4.20    3.30
  -6  -1  -8    4.40    4.80
  -6  -1  -8    7.10    3.00
   6  -1   8    1.70    1.60
  -6  -1  -8    2.60    2.90
  -6   1  -9    8.50    4.10
   6   1   9    9.20    2.60
  -6   1  -9   15.30    4.70
  -6   1  -9   21.50    6.90
  -6   1  -9   14.90    5.20
  -6   1  -9   11.70    4.50
  -6  -1  -9    7.60    4.50
  -6  -1  -9   19.20    7.20
   6  -1   9   12.70    2.80
  -6  -1  -9   12.40    4.20
  -6  -1  -9   14.40    4.50
  -6   1 -10    6.10    4.00
  -6   1 -10   -2.20    3.50
  -6   1 -10   -1.60    4.10
  -6   1 -10    1.20    3.20
   6   1  10   -3.60    1.30
  -6  -1 -10   -1.50    3.60
  -6  -1 -10    1.00    5.90
  -6  -1 -10    2.90    3.80
   6  -1  10   -2.20    1.60
  -6  -1 -10   -2.70    2.50
  -6   1 -11    5.00    5.60
  -6   1 -11    6.70    4.50
  -6   1 -11   10.70    4.70
  -6   1 -11   11.50    5.00
  -6  -1 -11    1.60    4.40
   6  -1  11    9.80    2.30
  -6  -1 -11   -0.50    6.50
  -6  -1 -11    8.30    4.30
  -6  -1 -11    4.80    4.50
  -6   1 -12   16.10    8.50
  -6   1 -12   10.40    5.40
  -6   1 -12   10.80    5.50
  -6  -1 -12   21.90    6.90
  -6  -1 -12    9.80    8.60
   6  -1  12   13.40    3.10
  -6  -1 -12   27.10    7.10
  -6   1 -13   65.19   12.00
  -6   1 -13   52.89   10.70
  -6  -1 -13   52.79   14.80
  -6  -1 -13   67.59   12.00
  -6  -1 -13   70.89   11.40
  -6   1 -14   14.50    6.40
  -6   1 -14   16.50    7.00
  -6  -1 -14   20.70   13.10
  -6  -1 -14   24.80    7.80
  -6  -1 -14   31.60    7.60
   6   2 -16   28.80    8.80
   6   2 -16   16.60    9.30
   6   2 -16   29.80    8.40
   6  -2 -16   24.00    9.90
   6  -2 -16   29.30    8.90
   6  -2 -16   39.00    9.00
   6   2 -15   -0.70    5.40
   6   2 -15   -0.80    5.20
   6   2 -15    5.70    6.90
   6   2 -15    5.10    3.80
   6  -2 -15   -4.20    4.60
   6  -2 -15    6.30    5.80
   6  -2 -15    9.60    7.60
   6   2 -14   -6.00    2.60
   6   2 -14   -1.40    4.80
   6   2 -14   -7.70    3.60
   6   2 -14   -0.90    4.30
   6  -2 -14    3.80    5.60
   6  -2 -14    1.30    5.70
   6  -2 -14   -1.00    4.70
   6   2 -13   19.70    5.70
   6   2 -13   15.30    4.80
   6   2 -13   14.50    5.90
   6   2 -13   14.10    7.80
   6  -2 -13   14.10    5.60
   6  -2 -13   28.30    7.10
   6  -2 -13   12.30    7.00
   6   2 -12    3.00    3.30
   6   2 -12    0.60    3.60
   6   2 -12   -0.10    3.30
   6   2 -12    4.00    5.10
   6  -2 -12   -1.60    4.40
  -6  -2  12    4.60    2.30
   6  -2 -12    3.20    4.10
   6  -2 -12    3.90    3.80
   6   2 -11  135.19   20.80
   6   2 -11  152.38   24.40
   6   2 -11  163.78   22.80
   6   2 -11  199.98   22.00
   6  -2 -11  178.58   22.00
   6  -2 -11  188.98   23.10
   6  -2 -11  201.58   22.10
  -6  -2  11  184.18   20.20
   6   2 -10   42.20    6.80
   6   2 -10   26.90    6.10
   6   2 -10   15.20    4.70
   6   2 -10   19.90    7.60
   6  -2 -10   38.70    5.70
   6  -2 -10   24.90    5.90
   6  -2 -10   25.60    6.10
  -6  -2  10   21.60    4.10
   6  -2 -10   20.10    6.10
   6   2  -9    7.30    2.80
   6   2  -9    5.80    4.60
  -6   2   9    5.20    2.10
   6   2  -9    2.50    2.90
   6   2  -9    0.70    2.70
   6  -2  -9    6.80    3.50
   6  -2  -9    1.60    1.90
   6  -2  -9    5.40    3.20
  -6  -2   9    4.70    2.10
   6  -2  -9    2.50    3.10
   6   2  -8  135.19   18.10
   6   2  -8  149.88   18.40
   6   2  -8  124.39   20.20
   6   2  -8  158.88   17.50
   6   2  -8  133.09   18.50
  -6   2   8  147.59   17.30
   6  -2  -8  155.88   17.50
   6  -2  -8  166.48   18.90
   6  -2  -8  169.08   18.70
  -6  -2   8  156.58   17.20
  -6  -2   8  160.28   17.60
   6  -2  -8  159.08   19.00
  -6   2   7  306.77   37.10
   6   2  -7  334.97   38.00
   6   2  -7  316.47   37.90
   6   2  -7  361.36   37.50
   6   2  -7  325.77   38.30
   6   2  -7  318.97   40.20
   6  -2  -7  348.07   38.40
   6  -2  -7  357.56   37.30
   6  -2  -7  352.76   38.20
  -6  -2   7  323.57   37.00
   6  -2  -7  333.07   38.20
  -6  -2   7  334.17   37.30
  -6   2   6    3.60    1.70
  -6   2   6    4.10    1.40
   6   2  -6    5.90    2.30
   6   2  -6    8.20    3.90
   6   2  -6    6.90    2.50
   6   2  -6    3.60    2.60
   6   2  -6    4.80    1.90
   6  -2  -6    4.70    2.40
  -6  -2   6    6.70    1.90
   6  -2  -6    8.00    2.70
   6  -2  -6    2.10    2.00
  -6  -2   6    9.30    2.30
  -6  -2   6    6.30    1.60
  -6   2   5   71.19    7.50
   6   2  -5   59.39    9.00
   6   2  -5   64.69    8.70
  -6   2   5   60.69    7.70
   6   2  -5   64.39    8.10
   6   2  -5   65.49    8.60
   6   2  -5   69.79    8.50
   6  -2  -5   65.69    9.10
  -6  -2   5   56.29    7.60
   6  -2  -5   72.29    7.80
  -6  -2   5   64.19    8.00
   6  -2  -5   65.99    9.20
  -6  -2   5   65.79    8.20
   6  -2  -5   60.59    8.30
   6   2  -4   24.60    4.10
   6   2  -4   28.80    4.50
   6   2  -4   31.30    4.40
   6   2  -4   21.50    2.70
   6   2  -4   19.70    3.70
  -6   2   4   24.00    3.20
  -6  -2   4   26.10    3.80
   6  -2  -4   27.60    4.40
   6  -2  -4   27.60    3.70
  -6  -2   4   28.10    3.50
   6  -2  -4   19.80    4.10
  -6  -2   4   29.00    4.30
   6   2  -3   16.30    3.00
   6   2  -3   17.10    3.20
   6   2  -3   12.70    3.20
  -6   2   3   16.50    2.40
  -6  -2   3   15.50    2.80
  -6  -2   3   16.30    2.40
   6  -2  -3   18.30    2.70
   6  -2  -3   16.20    3.20
   6  -2  -3   15.60    3.10
   6   2  -2  115.89   13.80
   6   2  -2  115.69   13.60
  -6   2   2  127.99   13.20
  -6  -2   2  102.49   13.40
   6  -2  -2  112.69   13.40
  -6  -2   2  117.19   13.10
   6  -2  -2  120.99   13.40
   6   2  -1  128.09   14.50
   6   2  -1  124.99   15.00
   6   2  -1  123.29   15.20
  -6   2   1  126.69   14.60
   6  -2  -1  159.68   14.80
   6  -2  -1  123.79   14.70
  -6  -2   1  133.19   14.50
   6  -2  -1  118.59   14.60
   6   2   0   11.20    1.60
   6   2   0   10.50    2.30
   6   2   0   12.20    2.70
  -6   2   0   10.70    1.90
  -6  -2   0    7.70    2.10
  -6  -2   0    8.60    1.50
   6  -2   0    9.80    1.80
   6  -2   0    8.30    2.00
  -6  -2   0   11.90    1.50
  -6   2  -1    7.00    1.70
   6   2   1    4.10    1.60
   6   2   1    9.50    1.20
   6   2   1    5.70    2.00
  -6   2  -1    8.60    1.30
  -6   2  -1    8.90    1.90
   6  -2   1    6.50    1.40
  -6  -2  -1    6.20    1.40
  -6  -2  -1    5.60    2.00
  -6  -2  -1    8.50    1.50
  -6  -2  -1    7.10    1.10
   6  -2   1    5.10    1.70
  -6   2  -2  177.28   20.30
   6   2   2  191.18   20.90
  -6   2  -2  191.18   20.90
  -6   2  -2  185.38   20.90
   6   2   2  184.58   21.10
  -6  -2  -2  199.78   20.50
   6  -2   2  188.58   20.90
  -6  -2  -2  180.78   21.10
  -6  -2  -2  166.88   20.50
   6  -2   2  173.68   20.60
   6   2   3  439.16   47.00
   6   2   3  415.56   46.70
  -6   2  -3  469.55   47.00
  -6   2  -3  417.46   46.20
  -6   2  -3  339.37   46.70
  -6   2  -3  442.66   47.00
   6  -2   3  432.06   46.80
  -6  -2  -3  436.96   46.70
   6  -2   3  429.96   46.60
  -6  -2  -3  388.26   46.50
  -6  -2  -3  384.46   47.10
  -6  -2  -3  475.85   46.50
  -6   2  -4  194.48   20.80
  -6   2  -4  162.28   20.60
   6   2   4  170.08   20.40
  -6   2  -4  180.88   20.60
   6   2   4  182.38   20.30
  -6   2  -4  186.28   20.70
   6  -2   4  167.08   20.10
  -6  -2  -4  166.88   20.20
  -6  -2  -4  164.78   20.80
   6  -2   4  180.38   20.50
  -6  -2  -4  199.68   20.10
  -6   2  -5    2.90    2.10
   6   2   5    6.20    1.80
  -6   2  -5    8.00    2.80
  -6   2  -5    9.00    2.80
  -6   2  -5    1.50    2.40
  -6  -2  -5    6.50    2.10
  -6  -2  -5   13.30    3.60
   6  -2   5    2.80    1.80
  -6  -2  -5    6.40    2.00
  -6  -2  -5    6.00    1.90
   6  -2   5    7.40    1.90
  -6  -2  -5   12.40    4.60
  -6   2  -6    3.90    2.80
  -6   2  -6   14.40    3.60
  -6   2  -6    9.40    3.00
   6   2   6    7.10    2.00
  -6   2  -6    9.80    3.30
  -6   2  -6    5.30    4.00
   6  -2   6    6.40    1.90
  -6  -2  -6    2.40    1.80
  -6  -2  -6    8.60    4.80
   6  -2   6    6.00    2.20
  -6  -2  -6    9.90    2.70
  -6  -2  -6    8.30    3.20
  -6  -2  -6    8.90    2.70
   6   2   7   74.59    8.60
  -6   2  -7   75.19   12.70
  -6   2  -7   84.69   10.80
  -6   2  -7   47.40    9.40
  -6   2  -7   82.39   10.70
  -6   2  -7   56.79    9.90
  -6  -2  -7   72.29    9.70
   6  -2   7   61.19    8.60
  -6  -2  -7   63.99   10.50
  -6  -2  -7   72.69    9.10
  -6   2  -8  285.77   29.90
  -6   2  -8  208.88   29.40
  -6   2  -8  273.17   29.90
  -6   2  -8  262.37   29.70
  -6   2  -8  225.28   31.30
   6   2   8  248.38   28.30
  -6  -2  -8  292.77   29.10
  -6  -2  -8  288.37   29.30
   6  -2   8  232.68   28.20
  -6  -2  -8  228.58   29.80
  -6   2  -9   40.80    8.50
  -6   2  -9   51.69   11.20
  -6   2  -9   51.19    9.40
   6   2   9   59.99    7.40
  -6   2  -9   35.40    8.20
  -6   2  -9   50.49    8.90
  -6  -2  -9   86.49   13.20
   6  -2   9   45.10    6.90
  -6  -2  -9   64.29    8.80
  -6  -2  -9   56.39    8.60
  -6  -2  -9   52.09    9.80
  -6   2 -10    2.20    5.40
  -6   2 -10    0.90    3.70
  -6   2 -10    2.20    3.70
  -6   2 -10    3.60    3.60
  -6   2 -10    8.60    4.60
   6   2  10    3.50    2.10
   6  -2  10    3.00    1.80
  -6  -2 -10   -0.90    3.90
  -6  -2 -10    6.60    7.90
  -6  -2 -10    3.60    3.50
  -6  -2 -10    1.00    3.30
  -6   2 -11    5.30    4.30
  -6   2 -11   10.20    4.90
   6  -2  11    2.40    2.20
  -6  -2 -11    5.90    9.00
  -6  -2 -11   -3.80    3.80
  -6  -2 -11   -2.20    3.90
  -6   2 -12   34.60    8.40
  -6   2 -12   26.40    7.80
  -6  -2 -12   53.39   14.40
  -6  -2 -12   58.39    9.20
  -6  -2 -12   43.70    9.60
   6  -2  12   32.80    5.80
  -6   2 -13   80.59   13.00
  -6   2 -13   45.40   11.20
  -6  -2 -13   76.69   17.60
  -6  -2 -13   80.59   13.20
  -6  -2 -13  113.09   13.70
  -6   2 -14   22.90    7.60
  -6   2 -14   39.10    9.00
  -6  -2 -14   27.90    7.50
  -6  -2 -14   16.40   13.40
  -6  -2 -14   19.80    7.70
   6   3 -16    9.70    6.30
   6   3 -16    4.10    7.60
   6   3 -16    8.90    4.70
   6  -3 -16    2.90    6.60
   6  -3 -16   -5.90    5.80
   6  -3 -16   -5.10    7.90
   6   3 -15    7.60    5.40
   6   3 -15    0.90    6.10
   6   3 -15    3.30    3.80
   6  -3 -15    6.50    5.90
   6  -3 -15   13.40    6.40
   6  -3 -15    4.60    7.90
   6   3 -14    1.60    4.50
   6   3 -14   -1.50    4.20
   6   3 -14    1.90    6.20
   6   3 -14    1.50    3.40
   6  -3 -14    3.30    5.20
   6  -3 -14    7.60    5.40
   6  -3 -14   -9.30    5.70
   6   3 -13    7.90    5.00
   6   3 -13    4.60    3.90
   6   3 -13    0.50    5.10
   6   3 -13   10.30    5.20
   6  -3 -13    0.60    6.00
  -6  -3  13    5.30    2.80
   6  -3 -13   -0.10    4.20
   6  -3 -13    8.80    5.80
   6   3 -12   -3.00    2.20
   6   3 -12    0.00    3.70
   6   3 -12   -3.50    3.30
   6   3 -12   -5.20    3.80
   6  -3 -12   -1.90    3.80
   6  -3 -12   -2.70    3.70
  -6  -3  12    0.20    2.20
   6  -3 -12   -3.60    5.10
   6   3 -11   -1.30    3.10
   6   3 -11   -1.50    3.80
   6   3 -11    5.90    3.80
   6   3 -11    0.90    2.40
   6  -3 -11    0.10    2.10
   6  -3 -11    1.60    4.40
  -6  -3  11   -2.70    1.70
   6  -3 -11    4.50    3.50
   6  -3 -11   -4.90    3.30
   6   3 -10    5.70    3.20
   6   3 -10    2.90    4.50
   6   3 -10    0.60    2.90
   6   3 -10    1.50    3.20
   6  -3 -10    5.60    3.90
   6  -3 -10    4.50    2.50
   6  -3 -10    8.50    4.80
   6  -3 -10    1.70    3.40
  -6  -3  10    2.10    2.10
   6   3  -9    2.30    2.30
   6   3  -9    0.20    3.20
   6   3  -9    0.20    1.70
   6   3  -9   -1.10    3.40
   6   3  -9   -2.30    2.40
   6  -3  -9    1.90    2.90
   6  -3  -9   -4.10    2.30
   6  -3  -9    1.20    2.00
   6  -3  -9    4.30    4.00
  -6  -3   9    1.50    1.80
   6   3  -8  317.97   42.50
  -6   3   8  360.66   38.80
   6   3  -8  294.07   39.60
   6   3  -8  368.66   39.10
   6   3  -8  332.87   39.50
   6   3  -8  325.27   40.00
   6  -3  -8  326.87   39.90
   6  -3  -8  363.66   39.00
  -6  -3   8  314.57   38.50
   6  -3  -8  396.66   40.00
   6  -3  -8  424.36   40.40
  -6  -3   8  328.67   39.00
  -6   3   7  276.17   29.60
   6   3  -7  246.78   30.70
   6   3  -7  287.57   31.20
   6   3  -7  256.37   33.30
   6   3  -7  277.37   30.40
  -6   3   7  246.68   29.80
   6   3  -7  270.07   30.60
   6  -3  -7  284.67   30.10
  -6  -3   7  276.87   29.80
  -6  -3   7  263.67   30.20
  -6  -3   7  248.48   30.30
   6  -3  -7  285.77   30.80
   6  -3  -7  247.38   30.90
   6   3  -6    0.80    2.90
   6   3  -6    3.60    2.20
   6   3  -6    5.30    2.30
  -6   3   6    5.70    1.70
  -6   3   6    4.10    1.40
   6   3  -6    3.10    2.60
   6   3  -6    5.50    2.10
  -6  -3   6    4.60    1.90
  -6  -3   6    3.60    1.40
   6  -3  -6    3.50    3.00
   6  -3  -6    3.20    2.20
   6  -3  -6    2.60    2.20
  -6  -3   6    8.80    2.40
  -6   3   5    0.30    1.00
   6   3  -5    0.10    1.90
   6   3  -5   -2.60    1.20
   6   3  -5    1.50    1.60
   6   3  -5   -0.50    1.40
  -6  -3   5    0.20    0.80
   6  -3  -5    2.20    2.10
  -6  -3   5    2.10    1.50
   6  -3  -5   -0.30    0.80
   6  -3  -5   -5.50    2.90
   6  -3  -5   -2.10    1.40
  -6  -3   5   -1.00    1.40
   6   3  -4    3.10    1.70
  -6   3   4    3.20    1.20
   6   3  -4    4.30    1.70
   6   3  -4    2.10    1.90
   6   3  -4    4.50    2.40
  -6  -3   4    5.00    1.90
   6  -3  -4    6.70    2.10
   6  -3  -4    4.60    2.00
   6  -3  -4    3.50    1.10
  -6  -3   4    3.40    1.10
  -6  -3   4    3.20    1.50
   6   3  -3  258.87   30.20
  -6   3   3  276.07   29.50
   6   3  -3  244.38   30.20
   6   3  -3  289.27   30.10
  -6  -3   3  247.38   29.90
   6  -3  -3  261.27   29.60
   6  -3  -3  262.57   30.00
  -6  -3   3  253.87   30.10
  -6  -3   3  276.77   29.50
   6  -3  -3  286.77   30.00
   6   3  -2  572.14   68.09
   6   3  -2  613.04   67.99
  -6   3   2  615.64   67.39
   6  -3  -2  632.54   67.69
   6  -3  -2  706.43   68.09
   6  -3  -2  610.14   67.29
  -6  -3   2  559.34   67.99
  -6  -3   2  604.64   67.79
   6  -3  -2  611.94   67.49
  -6  -3   2  626.94   67.29
   6   3  -1 1209.78  131.79
  -6   3   1 1195.88  131.29
   6   3  -1 1157.28  131.99
   6  -3  -1 1252.67  131.29
  -6  -3   1 1210.18  131.69
  -6  -3   1 1184.08  131.89
   6  -3  -1 1177.28  131.39
  -6  -3   1 1217.78  131.09
   6   3   0   70.39    8.30
   6   3   0   55.69    6.60
   6   3   0   57.49    7.60
  -6   3   0   48.90    6.70
   6  -3   0   57.49    6.70
  -6  -3   0   59.09    6.50
   6  -3   0   57.79    7.00
  -6  -3   0   57.09    7.10
  -6  -3   0   46.60    7.40
  -6  -3   0   61.49    7.20
   6   3   1  114.29   13.90
  -6   3  -1  118.19   13.30
   6   3   1  112.79   12.90
   6   3   1  118.39   13.70
  -6  -3  -1  109.09   13.60
   6  -3   1  125.59   13.60
  -6  -3  -1  110.89   13.70
   6  -3   1  106.39   13.20
  -6  -3  -1  120.89   12.80
  -6  -3  -1  118.89   13.50
  -6   3  -2   97.29    9.70
   6   3   2   88.29    9.90
   6   3   2   81.49   10.00
  -6   3  -2   93.79    9.70
  -6   3  -2   62.29    9.60
  -6  -3  -2   98.79    9.80
   6  -3   2   83.19    9.80
  -6  -3  -2   73.49    9.20
  -6  -3  -2   79.49   10.40
  -6  -3  -2   71.49    9.20
  -6  -3  -2   83.19    9.90
   6  -3   2   76.19    9.40
  -6   3  -3   53.89    7.60
   6   3   3   59.39    7.70
   6   3   3   53.09    7.30
  -6   3  -3   54.79    7.30
  -6   3  -3   56.79    7.40
   6  -3   3   59.79    7.40
  -6  -3  -3   55.89    7.40
   6  -3   3   52.19    6.60
  -6  -3  -3   48.60    6.40
  -6  -3  -3   53.09    7.70
  -6  -3  -3   50.49    6.50
  -6   3  -4   99.99   12.40
  -6   3  -4  110.09   12.50
   6   3   4  115.49   12.40
  -6   3  -4  106.69   12.60
  -6   3  -4   90.69   12.60
  -6  -3  -4  109.59   13.00
  -6  -3  -4  113.89   11.90
  -6  -3  -4   95.29   12.20
   6  -3   4   96.59   12.00
  -6  -3  -4   88.19   11.90
   6  -3   4  101.99   12.30
  -6   3  -5    3.10    1.90
  -6   3  -5   -1.50    1.80
   6   3   5    1.70    1.50
  -6   3  -5    2.80    2.30
  -6   3  -5    1.30    2.00
   6  -3   5    1.70    1.50
  -6  -3  -5    1.00    1.30
  -6  -3  -5   -0.90    4.80
   6  -3   5    0.50    1.50
  -6  -3  -5    1.00    1.50
  -6  -3  -5    3.40    2.60
  -6  -3  -5    2.30    1.40
  -6   3  -6   42.80    7.90
   6   3   6   44.00    6.80
  -6   3  -6   49.40    7.70
  -6   3  -6   47.20    7.70
  -6   3  -6   52.09    7.90
  -6  -3  -6   56.29    7.20
  -6  -3  -6   41.80    7.90
   6  -3   6   42.10    6.50
  -6  -3  -6   78.69   10.90
   6  -3   6   48.60    7.10
  -6   3  -7   17.20    4.60
  -6   3  -7   17.80    4.60
  -6   3  -7   16.00    4.60
  -6   3  -7   16.50    4.30
   6   3   7   17.90    3.50
  -6  -3  -7   39.40    9.00
  -6  -3  -7   24.90    4.20
  -6  -3  -7    7.70    4.30
   6  -3   7   14.40    3.20
   6  -3   7   10.40    3.40
  -6  -3  -7   16.30    3.50
  -6   3  -8   10.30    3.80
   6   3   8   12.60    2.90
  -6   3  -8   13.70    4.50
  -6   3  -8    6.50    3.80
  -6   3  -8   14.70    4.60
  -6  -3  -8    7.20    3.00
  -6  -3  -8   20.90    4.10
  -6  -3  -8    6.90    4.40
   6  -3   8    5.90    2.30
  -6  -3  -8   15.70    8.40
  -6   3  -9   25.30    5.80
  -6   3  -9    8.80    4.00
  -6   3  -9    7.40    3.80
  -6   3  -9   12.00    4.70
   6   3   9   11.00    2.90
  -6  -3  -9   10.90    3.80
   6  -3   9    9.60    2.60
  -6  -3  -9    8.60    8.30
  -6  -3  -9   17.10    4.00
  -6  -3  -9   10.20    4.50
  -6   3 -10    0.80    3.90
  -6   3 -10    4.70    3.90
  -6   3 -10    3.70    3.80
  -6   3 -10    5.10    4.00
  -6  -3 -10   -0.50    3.30
  -6  -3 -10    0.40    2.50
  -6  -3 -10   -0.40    3.80
   6  -3  10    0.50    1.40
  -6  -3 -10    7.70    9.40
  -6   3 -11   -0.10    3.70
  -6   3 -11   -3.50    3.20
  -6   3 -11   -5.50    3.60
  -6  -3 -11   -0.20    4.10
   6  -3  11    0.20    1.50
  -6  -3 -11   -1.40    3.70
  -6  -3 -11  -10.50    9.60
  -6   3 -12    1.70    4.30
  -6   3 -12    2.60    4.50
  -6  -3 -12    7.50   11.30
   6  -3  12    5.60    2.70
  -6  -3 -12    9.60    4.90
  -6  -3 -12    7.50    5.20
  -6   3 -13    5.80    5.60
  -6   3 -13    6.00    5.00
  -6  -3 -13   -1.30   12.50
   6  -3  13    6.00    3.10
  -6  -3 -13   20.90    6.20
  -6  -3 -13   10.10    5.70
   6   4 -15   11.90    5.60
   6   4 -15    2.20    3.80
   6   4 -15   -1.30    6.00
   6  -4 -15   -1.20    8.00
   6  -4 -15   -2.20    5.00
   6   4 -14    1.10    5.70
   6   4 -14   -4.10    3.20
   6   4 -14   -1.50    3.70
  -6  -4  14    2.90    2.80
   6  -4 -14   -1.90    5.00
   6  -4 -14   -3.30    7.60
   6   4 -13    8.90    4.00
   6   4 -13   17.40    5.90
   6   4 -13    3.60    5.80
   6  -4 -13    1.90    7.30
  -6  -4  13   11.60    3.70
   6  -4 -13    6.50    5.70
   6   4 -12    8.60    4.40
   6   4 -12    4.00    4.40
   6   4 -12    1.80    5.30
   6   4 -12    2.00    3.20
  -6  -4  12    3.40    2.80
   6  -4 -12    5.00    3.10
   6  -4 -12    6.60    4.70
   6   4 -11   67.89   16.10
   6   4 -11   62.19   12.10
   6   4 -11   64.89   11.90
   6   4 -11   97.59   12.70
   6  -4 -11   69.09   12.40
   6  -4 -11  105.99   14.80
   6  -4 -11   68.69   10.80
  -6  -4  11   90.09   11.20
   6   4 -10   65.79   11.40
   6   4 -10   54.19   14.10
   6   4 -10   62.69   11.20
   6   4 -10   82.29    9.40
   6   4 -10   87.19   11.60
   6  -4 -10   72.59    9.90
  -6  -4  10   67.69    9.90
   6  -4 -10   69.29   11.80
   6   4  -9    8.90    5.50
   6   4  -9    7.90    3.70
   6   4  -9    4.50    2.50
   6   4  -9    5.90    3.40
   6   4  -9    8.30    3.70
  -6  -4   9    8.30    3.00
   6  -4  -9    9.60    5.20
   6  -4  -9    5.50    2.40
   6  -4  -9    5.20    3.30
   6   4  -8  130.79   15.00
   6   4  -8  101.19   19.40
  -6   4   8  121.29   14.10
   6   4  -8  112.49   15.50
   6   4  -8  119.89   15.20
   6   4  -8  116.19   16.60
  -6  -4   8  162.08   18.00
   6  -4  -8  144.89   17.30
   6  -4  -8  132.39   14.80
  -6  -4   8  107.69   14.60
   6   4  -7   21.70    5.40
  -6   4   7   31.80    4.20
   6   4  -7   29.10    5.10
   6   4  -7   26.70    5.00
   6   4  -7   33.30    6.00
  -6  -4   7   20.10    3.90
   6  -4  -7   41.20    7.00
   6  -4  -7   15.10    4.80
  -6  -4   7   34.80    5.60
  -6  -4   7   20.30    4.40
   6  -4  -7   29.30    4.70
   6   4  -6  143.39   16.60
   6   4  -6  126.99   17.10
  -6   4   6  143.99   16.00
   6   4  -6  139.19   17.20
   6   4  -6  133.49   16.40
   6   4  -6  148.49   17.00
  -6  -4   6  157.38   16.10
   6  -4  -6  122.09   16.90
  -6  -4   6  138.89   16.80
  -6  -4   6  133.29   16.50
   6   4  -5   70.29   11.10
  -6   4   5   82.89   10.00
   6   4  -5   78.59   11.70
   6   4  -5   98.09   10.80
   6   4  -5   81.29   10.30
  -6  -4   5   86.99   11.40
   6  -4  -5   91.79    9.90
  -6  -4   5   80.19   10.50
   6  -4  -5   79.09   11.40
  -6  -4   5   87.29   10.00
   6   4  -4   26.60    4.70
   6   4  -4   24.80    4.00
   6   4  -4   13.80    3.70
  -6   4   4   17.10    2.80
  -6  -4   4   10.00    2.90
  -6  -4   4   14.30    2.60
   6  -4  -4   16.40    3.50
   6  -4  -4   16.10    2.70
  -6  -4   4   17.70    3.80
   6   4  -3  200.78   22.30
  -6   4   3  176.78   21.50
   6   4  -3  181.78   22.40
   6   4  -3  206.18   22.40
   6  -4  -3  189.28   21.50
  -6  -4   3  202.18   21.50
   6  -4  -3  196.78   22.10
  -6  -4   3  172.98   22.20
  -6  -4   3  206.48   22.10
   6   4  -2   15.90    3.60
  -6   4   2   22.40    3.20
   6   4  -2   23.80    4.20
   6   4  -2   17.10    4.10
  -6  -4   2   20.80    3.60
   6  -4  -2   17.10    3.00
  -6  -4   2   15.10    2.70
   6  -4  -2   24.50    3.00
   6  -4  -2   23.40    3.70
  -6  -4   2   17.30    3.70
   6   4  -1  221.68   27.30
   6   4  -1  245.98   27.20
  -6   4   1  226.98   26.50
  -6  -4   1  250.97   26.40
   6  -4  -1  224.68   26.70
  -6  -4   1  207.38   27.10
  -6  -4   1  219.38   26.90
   6  -4  -1  293.97   26.80
   6  -4  -1  239.28   26.50
   6   4   0  173.88   21.50
   6   4   0  173.28   21.20
  -6   4   0  173.78   20.70
  -6  -4   0  199.08   20.50
  -6  -4   0  196.68   21.20
   6  -4   0  184.38   20.70
  -6  -4   0  185.48   21.30
  -6  -4   0  174.58   20.80
   6  -4   0  187.68   21.00
   6   4   1   -0.10    1.70
  -6   4  -1    2.40    1.30
   6   4   1    1.20    1.80
  -6  -4  -1   -1.20    1.30
   6  -4   1    1.40    1.20
  -6  -4  -1    0.50    1.50
  -6  -4  -1    0.40    0.70
  -6  -4  -1    2.00    1.60
   6  -4   1   -0.20    1.30
  -6   4  -2  121.09   17.40
   6   4   2  148.39   17.50
  -6   4  -2  138.69   16.70
   6   4   2  147.19   17.10
  -6  -4  -2  148.49   17.40
  -6  -4  -2  155.48   17.20
  -6  -4  -2  135.49   17.10
   6  -4   2  161.18   16.80
   6  -4   2  157.88   17.10
   6   4   3   67.49    9.30
  -6   4  -3   59.19    9.00
  -6   4  -3   80.19    8.90
  -6   4  -3   62.59    9.20
   6   4   3   80.79   10.10
  -6  -4  -3   73.39    9.00
   6  -4   3   69.99    9.40
  -6  -4  -3   64.29    9.60
   6  -4   3   78.19    8.80
  -6   4  -4   -0.50    1.70
  -6   4  -4   -1.00    1.60
  -6   4  -4    1.00    1.60
   6   4   4    0.20    1.30
   6  -4   4    3.70    1.80
  -6  -4  -4    0.50    2.10
   6  -4   4   -1.20    1.10
  -6  -4  -4   -0.20    1.50
  -6  -4  -4   -0.60    1.00
  -6  -4  -4    0.60    1.00
  -6   4  -5    5.50    2.90
  -6   4  -5    2.50    1.90
  -6   4  -5    2.60    2.20
  -6   4  -5    5.80    2.40
   6   4   5    0.30    1.70
   6  -4   5    0.50    1.90
  -6  -4  -5    7.00    5.80
  -6  -4  -5    1.10    1.50
  -6  -4  -5    1.70    1.50
  -6  -4  -5   -0.30    2.20
   6  -4   5    3.40    1.70
  -6  -4  -5    1.40    1.50
  -6   4  -6   14.40    4.10
  -6   4  -6   17.90    4.30
   6   4   6   21.70    3.70
  -6   4  -6   17.10    4.00
  -6   4  -6   18.70    4.10
  -6  -4  -6   21.90    3.80
  -6  -4  -6   26.10    5.50
  -6  -4  -6   17.70    3.40
  -6  -4  -6   34.10    8.60
   6  -4   6   13.80    3.80
   6  -4   6   10.60    3.00
  -6   4  -7  224.68   25.40
   6   4   7  189.98   24.40
  -6   4  -7  232.18   25.40
  -6   4  -7  243.88   25.60
  -6   4  -7  158.98   25.20
   6  -4   7  194.58   24.30
  -6  -4  -7  241.08   24.50
   6  -4   7  218.18   24.80
  -6  -4  -7  236.28   24.70
  -6  -4  -7  225.78   25.90
   6   4   8   55.99    7.80
  -6   4  -8   53.89    9.00
  -6   4  -8   44.10    9.20
  -6   4  -8   65.39    9.70
  -6   4  -8   58.19    9.50
  -6  -4  -8   59.49    8.10
   6  -4   8   39.10    7.30
  -6  -4  -8   88.19   13.80
  -6  -4  -8   66.59    8.40
  -6  -4  -8   55.89    9.90
  -6   4  -9  138.69   18.10
  -6   4  -9  165.88   17.70
   6   4   9  122.19   16.80
  -6   4  -9  110.79   17.80
  -6   4  -9  138.69   17.90
  -6  -4  -9  117.99   18.10
   6  -4   9  112.59   15.40
  -6  -4  -9  138.89   16.20
  -6  -4  -9  148.49   16.20
  -6   4 -10    9.20    4.50
  -6   4 -10   14.40    5.30
  -6   4 -10   22.80    6.00
  -6   4 -10   20.80    9.50
  -6  -4 -10   21.20    5.00
  -6  -4 -10   17.50    4.80
  -6  -4 -10   19.30    6.50
   6  -4  10   18.40    3.60
  -6  -4 -10   35.90   12.20
  -6   4 -11   -3.00    3.80
  -6   4 -11    6.40    4.40
  -6   4 -11    1.80    4.40
  -6  -4 -11    0.50   11.20
  -6  -4 -11    4.70    4.80
  -6  -4 -11    6.80    3.90
   6  -4  11    0.20    1.70
  -6   4 -12    3.10    4.80
  -6   4 -12    8.10    4.80
  -6   4 -12   -1.20    4.40
  -6  -4 -12    4.90   12.40
  -6  -4 -12    1.20    5.10
  -6  -4 -12    1.00    3.20
   6  -4  12    0.80    2.00
  -6   4 -13   -3.50    4.20
  -6  -4 -13    6.60    6.10
  -6  -4 -13   11.80    4.40
   6  -4  13   -2.00    2.60
  -6  -4 -13   -1.10   12.70
   6   5 -15   28.70   11.90
   6   5 -15   43.50    9.30
   6   5 -15   29.40    8.10
   6  -5 -15   63.29   13.70
   6  -5 -15   16.80    8.50
   6   5 -14    8.90    8.40
   6   5 -14    8.30    4.50
   6   5 -14    5.80    4.70
  -6  -5  14    0.80    2.80
   6  -5 -14   -1.30    8.50
   6  -5 -14    6.50    6.10
   6   5 -13   17.20    9.10
   6   5 -13   21.20    6.40
   6   5 -13   23.40    6.70
   6  -5 -13   14.10    6.90
   6  -5 -13   21.70    5.20
  -6  -5  13   26.50    5.40
   6  -5 -13   28.00   10.60
   6   5 -12    7.00    6.60
   6   5 -12   16.20    5.10
   6   5 -12    7.70    4.40
   6  -5 -12    8.40    3.40
   6  -5 -12    1.50    7.90
   6  -5 -12    5.80    5.30
  -6  -5  12    6.40    3.40
   6   5 -11    6.90    4.30
   6   5 -11    6.60    4.30
   6   5 -11   16.70    8.40
   6  -5 -11    6.60    7.80
  -6  -5  11    7.20    3.30
   6  -5 -11    6.60    4.70
   6  -5 -11    4.60    3.00
   6   5 -10   15.10    8.30
   6   5 -10   16.60    5.80
   6   5 -10   23.80    6.20
   6   5 -10   39.30    5.70
   6  -5 -10   25.20    5.20
  -6  -5  10   31.60    5.60
   6  -5 -10   42.20    9.70
   6  -5 -10   25.90    7.00
   6   5  -9    7.70    6.20
   6   5  -9   11.40    3.50
  -6   5   9    7.10    2.40
   6   5  -9    5.90    4.00
   6   5  -9    6.00    4.00
  -6  -5   9   11.80    3.70
   6  -5  -9   14.50    3.50
   6  -5  -9    8.10    4.10
   6  -5  -9   15.90    7.20
   6   5  -8   45.70    7.70
   6   5  -8   37.00   10.70
   6   5  -8   36.10    8.00
   6   5  -8   45.90    8.60
  -6   5   8   43.30    6.40
  -6  -5   8   47.30    7.40
  -6  -5   8   55.99    8.30
   6  -5  -8   42.60    8.30
   6  -5  -8   80.79   11.20
   6   5  -7   31.10    6.10
   6   5  -7   17.90    5.50
   6   5  -7   19.80    5.10
  -6   5   7   23.60    4.10
  -6  -5   7   26.80    5.10
  -6  -5   7   25.00    5.40
   6  -5  -7   28.10    5.90
   6  -5  -7   52.29    8.60
   6   5  -6   31.40    6.30
   6   5  -6   45.50    6.30
  -6   5   6   25.20    4.60
   6   5  -6   29.80    6.40
   6   5  -6   47.00    6.90
  -6  -5   6   28.80    6.00
  -6  -5   6   31.10    5.50
   6  -5  -6   39.70    6.60
   6   5  -5   29.30    5.60
   6   5  -5   30.20    6.10
  -6   5   5   34.70    4.90
   6   5  -5   30.50    6.00
  -6  -5   5   29.90    5.30
   6  -5  -5   37.30    4.50
   6  -5  -5   24.30    5.60
  -6  -5   5   35.10    5.90
  -6  -5   5   34.10    4.60
   6   5  -4    5.90    3.10
   6   5  -4    1.20    2.60
  -6   5   4    2.80    1.60
   6   5  -4    4.70    2.50
   6  -5  -4    1.20    1.80
  -6  -5   4    6.30    2.50
  -6  -5   4    3.90    2.00
  -6  -5   4    3.80    1.50
   6  -5  -4    4.20    1.50
   6   5  -3   10.10    3.30
   6   5  -3   12.90    3.20
  -6   5   3    4.10    1.80
   6   5  -3   13.50    3.30
  -6  -5   3    8.20    2.60
   6  -5  -3    9.90    1.90
   6  -5  -3    1.60    2.20
  -6  -5   3   11.90    3.30
  -6  -5   3    8.80    1.90
  -6   5   2    3.60    1.50
   6   5  -2    1.30    2.40
   6   5  -2    9.00    2.90
   6   5  -2    8.20    2.90
   6   5  -2    4.50    1.90
  -6  -5   2    8.80    2.60
   6  -5  -2    5.70    2.10
  -6  -5   2   10.00    3.10
  -6  -5   2    3.70    1.50
   6  -5  -2    7.10    1.80
   6   5  -1   39.50    5.60
   6   5  -1   18.10    4.70
  -6   5   1   26.80    4.10
  -6  -5   1   34.20    5.50
   6  -5  -1   32.90    4.10
  -6  -5   1   25.20    4.60
   6  -5  -1   21.60    4.00
  -6  -5   1   32.50    4.00
   6  -5  -1   30.50    4.40
   6   5   0   13.50    3.90
   6   5   0   17.10    3.60
  -6   5   0   10.80    2.50
  -6  -5   0   20.60    2.60
   6  -5   0   14.00    2.60
   6  -5   0   15.00    3.00
  -6  -5   0   14.90    3.50
  -6  -5   0   12.90    3.10
   6   5   1   32.20    4.80
  -6   5  -1   23.80    3.90
   6   5   1   28.50    5.30
   6  -5   1   22.90    4.30
  -6  -5  -1   29.00    4.50
  -6  -5  -1   32.10    5.00
  -6  -5  -1   20.50    3.20
  -6  -5  -1   34.20    4.70
   6  -5   1   19.00    3.60
   6   5   2   58.09    7.90
  -6   5  -2   46.50    6.70
   6   5   2   47.00    7.20
   6  -5   2   50.59    7.20
   6  -5   2   53.99    6.80
  -6  -5  -2   46.90    7.20
  -6  -5  -2   42.50    7.10
   6   5   3   10.20    4.30
  -6   5  -3    5.70    2.80
  -6   5  -3    1.90    1.60
   6   5   3    9.60    2.70
  -6   5  -3    6.20    2.10
   6  -5   3    2.70    1.70
  -6  -5  -3    7.40    2.90
  -6  -5  -3    7.40    2.50
   6  -5   3    5.70    2.30
  -6   5  -4   17.70    4.20
  -6   5  -4   17.10    3.60
   6   5   4   20.10    3.90
  -6   5  -4   13.10    3.40
  -6  -5  -4   27.10    4.00
  -6  -5  -4   19.60    4.40
   6  -5   4   19.60    3.60
   6  -5   4   12.40    3.30
  -6   5  -5   30.50    5.30
   6   5   5   25.90    4.80
  -6   5  -5   17.80    5.10
  -6   5  -5   35.70    5.40
  -6  -5  -5   27.30    5.70
  -6  -5  -5   32.40    4.60
   6  -5   5   26.80    4.60
   6  -5   5   22.50    4.60
  -6   5  -6  129.39   14.70
  -6   5  -6  128.39   14.70
  -6   5  -6  121.19   15.50
   6   5   6  111.19   14.20
  -6   5  -6  104.39   15.20
  -6  -5  -6  105.79   15.80
   6  -5   6  115.19   14.10
   6  -5   6  123.29   14.70
  -6  -5  -6  119.99   14.00
  -6   5  -7  168.28   19.70
  -6   5  -7  130.99   19.90
  -6   5  -7  176.38   19.80
  -6   5  -7  132.89   19.90
   6   5   7  151.78   18.90
  -6  -5  -7  168.58   18.80
   6  -5   7  159.18   18.90
   6  -5   7  185.18   19.60
  -6  -5  -7  180.28   20.50
  -6   5  -8    6.10    3.70
  -6   5  -8    1.90    3.10
   6   5   8    1.70    2.00
  -6   5  -8    1.20    2.80
  -6   5  -8    0.90    3.30
  -6  -5  -8    3.20    2.30
   6  -5   8    0.90    2.40
  -6  -5  -8   11.00    4.90
   6  -5   8    0.50    2.10
  -6  -5  -8    5.70    9.10
  -6   5  -9  104.39   14.80
  -6   5  -9   96.89   14.70
  -6   5  -9  117.39   15.00
  -6   5  -9   56.49   13.50
  -6  -5  -9  115.09   12.90
   6  -5   9   91.89   12.40
  -6  -5  -9  104.19   15.50
  -6  -5  -9  173.28   21.50
  -6   5 -10   23.00    6.80
  -6   5 -10   30.80    7.40
  -6   5 -10   18.80    6.30
   6  -5  10   21.50    4.90
  -6  -5 -10   51.19    6.90
  -6  -5 -10   48.00    8.70
  -6  -5 -10   84.79   16.90
  -6   5 -11    2.90    4.40
  -6   5 -11    9.60    5.20
  -6   5 -11   -1.00    3.30
  -6  -5 -11    7.20    3.50
   6  -5  11    2.30    2.00
  -6  -5 -11   -2.10    4.40
  -6  -5 -11    9.50   14.30
  -6   5 -12    8.40    4.80
  -6   5 -12   10.90    5.80
  -6  -5 -12   -1.80    4.80
   6  -5  12    5.80    2.40
  -6  -5 -12   13.80   15.30
  -6  -5 -12   13.60    4.60
   6   6 -14   -0.50    4.40
   6   6 -14    0.60    4.10
   6   6 -14    1.40    7.20
  -6  -6  14   -1.10    3.10
   6  -6 -14   -7.10    7.70
   6   6 -13    3.70    6.60
   6   6 -13    5.30    4.10
   6   6 -13    4.20    4.10
   6  -6 -13    2.60    5.90
  -6  -6  13    6.20    3.20
   6  -6 -13   -7.40    7.80
   6   6 -12    0.40    3.70
   6   6 -12   -0.80    4.90
   6   6 -12    3.60    4.10
   6  -6 -12   -6.70    7.40
  -6  -6  12    0.60    2.60
   6  -6 -12    5.70    6.20
   6   6 -11   -2.40    4.40
   6   6 -11   -0.40    3.20
   6   6 -11    2.20    4.00
  -6  -6  11    0.40    2.90
   6  -6 -11   -0.70    4.70
   6  -6 -11   -0.10    7.20
   6   6 -10    2.80    5.90
   6   6 -10    4.70    3.10
   6   6 -10    1.10    3.40
   6   6 -10    5.30    3.70
   6  -6 -10   -0.40    4.20
   6  -6 -10   -0.50    6.80
  -6  -6  10    4.60    3.00
  -6   6   9   40.90    6.40
   6   6  -9   40.00    8.70
   6   6  -9   50.89    8.00
   6   6  -9   35.80    8.00
   6   6  -9   33.60   11.80
  -6  -6   9   63.69    8.80
  -6  -6   9   49.60    7.80
   6  -6  -9   44.60    8.80
  -6   6   8   64.49    7.80
   6   6  -8   61.59    9.80
   6   6  -8   45.40    9.40
   6   6  -8   39.00    8.40
   6  -6  -8   51.39    9.60
  -6  -6   8   75.69   10.00
  -6  -6   8   56.79    8.80
   6   6  -7    2.00    3.00
   6   6  -7    3.80    2.80
   6   6  -7    0.70    3.00
  -6   6   7   -0.50    1.60
  -6  -6   7    3.40    3.20
  -6  -6   7    1.90    2.60
   6  -6  -7    1.30    3.00
   6   6  -6   64.79    9.90
   6   6  -6   60.59   10.60
  -6   6   6   70.59    8.80
   6   6  -6   72.09   10.50
   6   6  -6   73.09    9.80
  -6  -6   6   54.79    9.90
   6  -6  -6   61.69   10.20
  -6  -6   6   63.29    9.50
   6   6  -5   74.99   11.80
   6   6  -5   84.09   12.30
  -6   6   5   79.39   10.30
   6   6  -5  100.99   12.20
   6  -6  -5   81.99   12.10
  -6  -6   5   83.49   12.00
  -6  -6   5   91.49   11.70
  -6   6   4  108.99   13.00
   6   6  -4  109.09   14.80
   6   6  -4  118.49   14.00
   6   6  -4  111.09   14.80
   6  -6  -4  113.99   13.80
  -6  -6   4  106.89   14.20
  -6  -6   4   82.79   14.00
   6  -6  -4  113.79   12.70
   6   6  -3  179.68   22.10
  -6   6   3  191.48   21.00
   6   6  -3  205.08   22.00
  -6  -6   3  186.48   22.00
   6  -6  -3  185.98   21.50
  -6  -6   3  172.98   20.70
  -6  -6   3  188.18   21.60
   6  -6  -3  170.48   20.70
  -6   6   2   -0.40    1.50
   6   6  -2    0.50    2.40
   6   6  -2   -3.40    1.80
  -6  -6   2    0.80    1.30
  -6  -6   2    6.40    2.80
  -6  -6   2   -0.10    1.90
   6  -6  -2   -1.20    1.20
   6  -6  -2   -0.50    1.80
   6   6  -1   37.40    6.90
  -6   6   1   32.60    5.70
   6   6  -1   56.49    6.30
   6   6  -1   34.40    7.00
   6  -6  -1   40.70    6.20
  -6  -6   1   56.39    6.00
   6  -6  -1   49.90    6.50
   6  -6  -1   45.90    6.30
  -6  -6   1   45.00    7.30
  -6  -6   1   36.70    6.50
   6   6   0   55.99    9.10
  -6   6   0   66.59    8.40
   6   6   0   72.29   10.20
   6  -6   0   62.89    8.70
   6  -6   0   60.69    8.00
  -6  -6   0   73.49    7.90
  -6  -6   0   57.19    9.20
  -6  -6   0   66.39    9.00
  -6   6  -1    1.80    1.50
   6   6   1    8.30    3.60
   6   6   1    3.30    2.70
  -6  -6  -1    2.60    3.40
  -6  -6  -1    4.10    2.50
   6  -6   1    4.90    1.80
   6  -6   1    5.90    2.50
   6   6   2    6.40    2.90
  -6   6  -2    1.10    1.40
   6   6   2    1.10    2.10
   6  -6   2   -1.30    1.40
  -6  -6  -2    1.60    2.00
  -6  -6  -2    1.80    2.10
   6  -6   2    2.30    1.80
   6   6   3    5.30    2.50
  -6   6  -3    2.00    1.80
  -6  -6  -3    1.50    2.00
  -6  -6  -3    2.40    2.50
   6  -6   3    4.70    2.00
   6  -6   3    4.10    2.30
  -6   6  -4   57.39   12.90
  -6   6  -4   80.29   10.90
  -6   6  -4   92.69   11.10
   6   6   4   84.19   11.30
   6  -6   4   82.79   10.30
  -6  -6  -4  107.99   12.50
   6  -6   4   74.99   10.90
  -6  -6  -4   84.99   10.90
  -6   6  -5   51.39    9.10
  -6   6  -5   64.19    8.50
  -6   6  -5   56.99    8.60
   6   6   5   61.19    8.60
   6  -6   5   64.79    8.80
  -6  -6  -5   68.59    9.70
   6  -6   5   45.50    7.80
  -6   6  -6   73.19    8.70
  -6   6  -6   39.40    8.40
   6   6   6   54.09    7.80
  -6   6  -6   53.89    8.30
  -6   6  -6   61.29    8.40
  -6  -6  -6   50.89    8.80
   6  -6   6   44.60    7.30
   6  -6   6   46.30    7.80
  -6   6  -7    9.50    3.60
  -6   6  -7   18.50    4.40
  -6   6  -7    8.60    3.70
  -6   6  -7    9.20    4.30
   6   6   7   17.00    3.50
   6  -6   7    8.30    3.30
  -6  -6  -7   10.90    4.40
   6  -6   7    7.10    2.90
  -6   6  -8    6.30    3.60
  -6   6  -8    0.10    2.60
  -6   6  -8    4.70    3.20
  -6   6  -8    2.70    3.00
   6   6   8    1.80    2.00
   6  -6   8    2.20    2.30
  -6  -6  -8   -5.20    3.20
   6  -6   8    6.50    3.00
  -6   6  -9   15.30    5.10
  -6   6  -9    5.40    4.20
  -6   6  -9   15.80    4.80
   6  -6   9   11.10    3.20
  -6  -6  -9   11.00    5.40
  -6   6 -10   16.40    5.60
  -6   6 -10   24.50    5.90
  -6   6 -10   22.00    6.90
  -6  -6 -10    4.50    4.80
   6  -6  10   21.80    4.00
  -6   6 -11   15.30    6.20
  -6   6 -11   11.20    5.90
  -6  -6 -11   38.50    8.20
   6  -6  11   20.20    4.10
  -6   6 -12   17.90    6.00
  -6   6 -12    7.30    8.90
  -6  -6 -12    8.00    6.10
   6  -6  12    7.20    2.90
   6   7 -13    3.00    4.30
   6   7 -13   -0.30    6.00
  -6  -7  13   -2.20    3.00
   6   7 -12   -1.20    5.50
   6   7 -12    2.50    4.10
  -6  -7  12    3.40    3.20
   6   7 -11   -1.70    4.90
   6   7 -11    1.30    3.70
   6  -7 -11   -2.30    5.30
  -6  -7  11   -2.80    2.60
  -6   7  10    1.90    2.20
   6   7 -10    6.30    4.40
   6   7 -10    4.50    5.90
   6  -7 -10   -0.60    5.20
  -6  -7  10    6.00    3.50
   6   7  -9    4.00    3.90
   6   7  -9    9.00    4.70
  -6   7   9    9.40    2.90
   6   7  -9   11.70    7.50
  -6  -7   9   11.50    4.40
   6  -7  -9   10.30    5.20
  -6  -7   9    7.90    4.30
  -6   7   8    3.60    2.40
   6   7  -8    8.40    4.10
   6   7  -8    6.80    4.40
  -6  -7   8   14.10    4.30
  -6  -7   8    7.10    4.10
   6  -7  -8   11.80    5.20
   6   7  -7    0.00    3.10
  -6   7   7    1.20    2.00
   6   7  -7   -6.40    2.80
   6  -7  -7    5.50    4.20
  -6  -7   7   -3.10    2.00
  -6  -7   7   -1.00    3.00
   6   7  -6   77.49   12.70
   6   7  -6   71.39   10.90
  -6   7   6   74.49    9.90
   6   7  -6   66.39   11.20
  -6  -7   6   74.29   10.70
   6  -7  -6   81.69   11.80
  -6  -7   6   73.69   11.30
  -6   7   5  410.86   44.80
   6   7  -5  358.06   45.90
   6   7  -5  452.55   45.90
  -6  -7   5  386.76   45.50
   6  -7  -5  396.26   45.80
  -6  -7   5  390.86   45.80
   6   7  -4   75.69   11.20
   6   7  -4   74.59   11.70
  -6   7   4   66.29    9.80
  -6  -7   4   79.99   11.60
   6  -7  -4   84.29    9.50
  -6  -7   4   76.79   11.20
   6  -7  -4   77.69   11.30
   6   7  -3   70.19   10.50
   6   7  -3   61.79   10.90
  -6   7   3   70.09    9.30
   6  -7  -3   69.39   10.10
  -6  -7   3   81.99   10.40
  -6  -7   3   65.29   10.40
   6  -7  -3   68.39    8.60
   6   7  -2    8.60    3.50
  -6   7   2   11.90    3.10
   6   7  -2    8.90    4.40
   6  -7  -2    8.80    3.10
  -6  -7   2    9.00    3.10
   6  -7  -2    9.80    2.60
  -6  -7   2    9.70    3.90
  -6   7   1    1.90    2.00
   6   7  -1    2.10    1.90
   6   7  -1   -1.80    2.50
   6   7  -1    1.10    2.50
   6  -7  -1    4.20    2.50
  -6  -7   1    3.40    2.60
  -6  -7   1   -1.80    2.20
   6  -7  -1    3.80    1.90
   6   7   0   85.19   10.10
   6   7   0   67.79   10.90
   6   7   0   74.49   11.80
  -6   7   0   81.89    9.80
  -6  -7   0   65.09   10.70
   6  -7   0   71.09   10.20
   6  -7   0   91.29   10.20
   6  -7   0   71.89    9.80
   6   7   1   72.69   11.00
   6   7   1   65.39   10.50
  -6   7  -1   61.69    9.40
   6  -7   1   63.39    9.80
  -6  -7  -1   62.59   10.20
   6  -7   1   77.29    9.30
   6  -7   1  108.29   10.20
   6   7   2   41.90    7.30
  -6   7  -2   28.40    5.00
   6   7   2   28.70    5.80
   6  -7   2   31.40    5.70
  -6  -7  -2   33.80    6.10
   6  -7   2   33.10    5.10
  -6   7  -3   -2.30    1.60
   6   7   3    0.70    2.30
   6  -7   3    3.30    2.50
  -6  -7  -3   -1.30    2.00
  -6  -7  -3    1.30    2.40
   6  -7   3    2.10    1.90
  -6   7  -4    6.90    2.70
  -6   7  -4    7.90    2.80
   6   7   4    4.80    2.80
  -6  -7  -4    9.10    3.40
   6  -7   4    6.10    2.40
  -6  -7  -4    4.00    2.40
   6  -7   4    3.40    2.70
  -6   7  -5   24.90    5.00
   6   7   5   30.50    5.30
  -6   7  -5   18.90    4.70
   6  -7   5   17.50    4.50
  -6  -7  -5   25.30    5.70
   6  -7   5   30.20    4.90
  -6   7  -6    1.10    2.60
   6   7   6    3.20    2.70
  -6   7  -6    0.90    3.00
  -6   7  -6    9.30    3.30
   6  -7   6    7.30    3.20
  -6  -7  -6    7.40    3.80
   6  -7   6    1.10    2.20
  -6   7  -7    4.20    5.30
  -6   7  -7    1.00    2.80
   6   7   7    0.50    2.30
  -6   7  -7    0.00    2.70
  -6  -7  -7   -3.50    2.90
   6  -7   7    3.90    2.30
   6  -7   7    3.60    3.00
  -6   7  -8    1.70    3.40
   6   7   8   -0.30    2.30
  -6   7  -8    0.30    3.20
  -6   7  -8    0.30    3.10
  -6  -7  -8    3.30    4.20
   6  -7   8    2.30    3.00
   6  -7   8   -0.60    2.10
  -6   7  -9    0.00    3.60
  -6   7  -9    6.70    3.80
   6  -7   9    5.40    2.90
  -6  -7  -9    2.10    4.20
   6  -7   9    5.20    3.00
  -6   7 -10    0.60    4.30
  -6   7 -10    8.30    4.80
   6  -7  10    0.10    2.30
  -6  -7 -10    0.30    4.00
  -6   7 -11   -1.10    5.20
   6  -7  11    6.10    2.80
  -6  -7 -11   -6.20    4.20
   6   8 -12   -1.50    4.10
   6   8 -12    1.00    7.60
  -6  -8  12   -0.60    3.50
   6   8 -11   -3.30    5.70
   6   8 -11   -1.00    4.10
  -6  -8  11    1.30    3.30
  -6   8  10   12.70    3.40
   6   8 -10   12.60    8.30
   6   8 -10   14.90    5.80
  -6  -8  10   12.40    5.00
  -6  -8  10    9.50    4.40
   6   8  -9    5.60    4.20
  -6   8   9    6.00    2.90
   6   8  -9    8.90    4.10
   6   8  -9    4.70    7.00
  -6  -8   9    5.00    3.70
   6  -8  -9    7.40    8.40
  -6  -8   9    3.00    4.00
   6   8  -8    0.20    3.90
   6   8  -8    2.60    3.70
  -6   8   8   -0.50    2.10
  -6  -8   8   -2.90    3.60
  -6  -8   8    3.50    3.30
   6  -8  -8   -2.30    4.30
   6   8  -7    5.80    4.10
   6   8  -7   -1.80    3.80
  -6   8   7   -1.30    1.90
   6  -8  -7    0.50    4.30
  -6  -8   7    4.80    3.30
  -6  -8   7   -5.10    2.90
  -6   8   6    1.40    2.10
   6   8  -6    4.30    4.00
   6   8  -6    5.40    4.00
   6   8  -6    1.00    3.50
  -6  -8   6    2.60    3.50
  -6  -8   6   -2.30    2.70
   6  -8  -6    4.60    3.80
  -6   8   5   20.90    4.80
   6   8  -5   35.60    7.50
   6   8  -5   32.10    6.70
  -6  -8   5   29.30    6.50
   6  -8  -5   43.30    7.80
  -6  -8   5   30.70    6.20
  -6   8   4  204.68   23.80
   6   8  -4  190.28   25.30
   6   8  -4  231.18   25.10
   6  -8  -4  185.68   24.70
  -6  -8   4  200.18   25.10
  -6  -8   4  220.48   24.70
  -6   8   3   -0.20    1.90
   6   8  -3    4.40    3.10
   6   8  -3   -0.70    3.30
  -6  -8   3    4.60    3.30
   6  -8  -3    0.10    3.10
  -6  -8   3    6.70    3.60
   6  -8  -3    4.00    1.90
  -6   8   2    4.90    2.40
   6   8  -2    4.30    3.30
   6   8  -2    5.80    3.80
  -6  -8   2    3.20    3.70
  -6  -8   2    4.60    3.40
   6  -8  -2    4.20    2.10
   6  -8  -2    2.30    3.00
   6   8  -1    2.90    3.00
  -6   8   1    1.60    2.10
   6   8  -1   -2.60    2.80
  -6  -8   1   -1.60    2.70
   6  -8  -1    2.40    2.80
   6  -8  -1   -2.40    1.50
   6   8   0   38.70    5.80
   6   8   0   41.90    7.30
  -6   8   0   29.50    5.30
   6   8   0   34.50    7.70
   6  -8   0   27.10    5.60
  -6  -8   0   49.40    7.40
   6  -8   0   34.40    6.00
  -6   8  -1   39.50    6.80
   6   8   1   50.69    9.20
   6   8   1   50.89    8.50
   6   8   1   46.00    7.10
   6  -8   1   40.20    8.50
   6  -8   1   65.89    8.00
   6  -8   1   60.19    8.00
  -6  -8  -1   35.90    7.40
   6   8   2    4.80    2.70
  -6   8  -2   -1.60    1.80
   6   8   2    0.60    2.60
  -6  -8  -2    1.80    2.50
   6  -8   2    1.80    2.20
   6  -8   2   -4.20    2.70
   6  -8   2    2.00    2.60
   6   8   3    6.80    3.40
  -6   8  -3    7.00    2.70
  -6  -8  -3    3.60    3.10
   6  -8   3    8.30    2.90
   6  -8   3   10.50    3.50
   6   8   4    7.20    3.40
  -6   8  -4    0.70    2.40
  -6   8  -4   10.00    3.30
   6  -8   4    1.30    2.20
   6  -8   4    8.80    3.40
  -6  -8  -4    5.10    3.20
  -6   8  -5  116.09   14.90
   6   8   5  112.59   15.20
  -6  -8  -5  122.49   15.80
   6  -8   5  121.69   14.30
   6  -8   5   97.99   15.00
   6   8   6    4.80    3.20
  -6   8  -6    9.20    3.60
  -6   8  -6    5.90    3.40
  -6  -8  -6   11.80    4.30
   6  -8   6    7.40    3.40
   6  -8   6    8.70    3.10
   6   8   7    2.80    2.60
  -6   8  -7   -1.40    3.20
  -6   8  -7    1.20    3.40
  -6  -8  -7    8.50    4.00
   6  -8   7    5.10    3.20
   6  -8   7    0.20    2.30
  -6   8  -8    7.30    4.10
   6  -8   8    3.70    2.70
  -6  -8  -8    2.70    4.10
   6  -8   8    4.80    3.40
  -6   8  -9   -2.60    4.00
  -6  -8  -9    1.00    4.40
   6  -8   9    1.70    2.40
   6  -8   9    2.50    3.00
   6   9 -10    2.60    7.30
  -6   9  10   -0.70    2.60
   6   9 -10    1.10    4.30
  -6  -9  10   -3.60    3.20
  -6  -9  10    6.20    4.40
  -6   9   9   32.90    5.70
   6   9  -9   26.60    8.30
   6   9  -9   18.80   10.30
  -6  -9   9   35.90    6.80
  -6  -9   9   32.40    7.30
   6   9  -8    0.90    4.20
  -6   9   8   -3.70    2.00
   6   9  -8    0.30    4.20
  -6  -9   8    1.30    3.70
  -6  -9   8    2.20    3.30
   6   9  -7   -6.20    3.30
  -6   9   7    3.10    2.40
   6   9  -7   13.70    5.30
  -6  -9   7    3.20    3.60
  -6  -9   7    4.00    3.50
   6   9  -6   -2.70    3.40
   6   9  -6   -4.60    4.00
  -6   9   6   -1.90    2.00
   6   9  -6   -0.30    3.70
  -6  -9   6    0.40    3.60
  -6  -9   6   -0.40    3.20
   6  -9  -6    4.40    5.50
   6   9  -5   14.30    5.90
   6   9  -5   30.80    6.70
  -6   9   5   22.30    4.70
   6  -9  -5   25.40    7.20
  -6  -9   5   33.20    6.80
  -6  -9   5   37.80    6.50
   6   9  -4   13.90    4.60
  -6   9   4   15.50    3.70
   6   9  -4   14.90    5.70
  -6  -9   4   10.50    4.60
  -6  -9   4    9.00    4.10
   6  -9  -4   11.00    5.60
   6   9  -3   -1.30    4.20
   6   9  -3    8.50    4.20
  -6   9   3    8.80    2.90
  -6  -9   3    0.50    3.30
   6  -9  -3   10.40    4.60
   6  -9  -3    8.20    2.50
  -6  -9   3    6.20    4.30
   6   9  -2    1.00    3.10
   6   9  -2    1.20    4.20
  -6   9   2    1.30    2.10
   6  -9  -2    3.10    3.60
   6  -9  -2    3.10    2.00
  -6  -9   2   -0.10    3.50
   6   9  -1   -1.70    4.00
   6   9  -1   -1.40    2.80
  -6   9   1   -1.40    1.90
  -6  -9   1   -1.70    2.90
   6  -9  -1    0.90    3.10
   6  -9  -1    0.30    2.10
  -6   9   0    2.00    2.60
   6   9   0    0.20    3.40
   6   9   0   -2.20    3.30
   6   9   0    0.40    2.20
   6  -9   0   -5.20    2.30
   6  -9   0   -1.60    2.10
  -6  -9   0    4.40    3.50
  -6   9  -1    1.40    2.30
   6   9   1    6.40    3.00
   6   9   1    5.80    4.40
   6   9   1    0.90    3.50
   6  -9   1    0.10    2.30
  -6  -9  -1    6.70    3.60
   6  -9   1   -0.10    2.80
   6   9   2   -2.00    2.30
  -6   9  -2   -3.10    2.00
   6   9   2    3.10    3.00
  -6  -9  -2   -2.80    2.60
   6  -9   2    4.50    3.60
   6  -9   2   -1.50    2.70
   6   9   3    0.80    2.70
   6   9   3   -2.20    2.60
  -6   9  -3   -2.30    1.90
   6  -9   3    5.30    2.90
   6  -9   3    3.90    3.40
   6  -9   3   -6.20    3.00
  -6   9  -4    3.70    2.80
   6   9   4   -2.20    2.70
   6   9   4    4.60    3.10
   6  -9   4    0.50    2.30
   6  -9   4   -2.80    2.40
   6   9   5   35.20    6.90
  -6   9  -5   42.00    7.00
   6   9   5   45.90    7.10
   6  -9   5   34.40    7.00
   6  -9   5   37.00    6.30
  -6   9  -6  102.09   13.60
   6   9   6   96.89   13.20
   6   9   6   83.19   12.70
   6  -9   6   98.29   12.60
   6  -9   6  108.39   13.70
  -6  -9  -6   83.99   13.10
  -6   9  -7    1.00    3.80
   6   9   7   -2.40    3.00
   6   9   7    0.60    2.70
   6  -9   7    0.70    2.50
  -6  -9  -7    0.10    3.40
   6  -9   7    2.80    3.20
  -6   9  -8    1.30    4.10
   6   9   8   -0.20    3.30
   6  -9   8    2.20    3.10
   6  -9   8    1.60    2.50
  -6  -9  -8   -5.70    3.70
   6  10  -8    4.00    5.30
  -6  10   8   -0.90    2.40
  -6 -10   8    4.90    4.40
  -6 -10   8   -2.20    3.30
   6  10  -7    6.40    5.60
   6  10  -7    6.00    5.20
  -6  10   7   -5.40    1.90
  -6 -10   7    2.20    3.60
  -6 -10   7   -1.60    3.30
  -6  10   6   -2.70    2.10
   6  10  -6   -2.50    4.40
   6  10  -6   -4.10    4.50
   6  10  -6    1.60    4.30
  -6 -10   6    4.00    3.80
  -6 -10   6   -4.30    3.60
  -6  10   5    4.30    2.80
   6  10  -5   -1.50    4.50
   6  10  -5   -2.80    5.10
   6  10  -5    2.10    4.30
  -6 -10   5    6.20    4.30
  -6 -10   5    0.80    3.30
   6  10  -4  150.68   18.20
  -6  10   4  134.09   15.50
   6  10  -4  108.49   17.80
  -6 -10   4  103.69   17.00
  -6  10   3    2.30    2.30
   6  10  -3   10.60    5.50
   6  10  -3   -0.80    3.50
  -6 -10   3    1.50    4.20
   6 -10  -3    3.10    6.30
   6  10  -2   -0.80    4.40
  -6  10   2    0.50    2.40
   6  10  -2   -4.10    3.00
   6 -10  -2   -1.10    4.30
   6 -10  -2   -1.90    2.00
  -6 -10   2    7.60    4.10
  -6  10   1    1.90    2.40
   6  10  -1   -1.30    4.40
   6  10  -1    2.90    3.60
   6 -10  -1    0.80    2.00
  -6 -10   1    2.50    3.30
   6 -10  -1   -0.30    4.00
   6  10   0    7.20    4.30
  -6  10   0    3.50    2.90
   6  10   0    6.00    4.80
  -6 -10   0   10.60    4.00
   6 -10   0    1.30    2.60
   6 -10   0   10.40    4.70
   6  10   1  130.69   16.70
   6  10   1  113.99   16.50
  -6  10  -1  111.49   15.00
   6 -10   1  144.89   15.90
  -6 -10  -1  116.59   15.60
   6 -10   1   95.49   14.90
  -6  10  -2    0.00    2.60
   6  10   2    0.40    3.00
   6  10   2    4.40    3.40
   6 -10   2   -1.60    3.20
   6 -10   2   -0.60    2.40
   6  10   3    1.60    3.20
   6  10   3    0.10    3.10
  -6  10  -3   -0.10    2.50
   6 -10   3    1.20    3.40
   6 -10   3    2.10    3.00
   6  10   4    2.20    3.20
   6  10   4    2.30    3.20
  -6  10  -4    2.70    3.30
   6 -10   4    3.50    3.20
   6 -10   4   -4.00    3.50
   6  10   5   11.10    4.00
   6  10   5   10.60    4.00
  -6  10  -5    9.00    4.30
   6 -10   5   11.50    3.50
   6 -10   5   14.90    4.40
   6 -10   5   13.20    5.10
   6  10   6   15.00    4.80
  -6  10  -6   14.00    5.20
   6  10   6   18.20    4.50
   6 -10   6    8.00    5.80
   6 -10   6   17.10    4.10
   6 -10   6   14.70    4.60
   6  11  -4    0.60    4.40
  -6  11   4    6.50    3.20
   6  11  -4    5.10    5.20
   6  11  -4    2.10    6.10
  -6 -11   4    5.10    4.70
   6  11  -3    6.20    5.00
  -6  11   3    7.60    3.20
   6  11  -3    8.20    5.90
  -6 -11   3   -1.00    3.60
   6  11  -2   -1.90    3.80
   6  11  -2    6.40    5.70
  -6  11   2    2.00    2.90
  -6 -11   2    7.20    4.40
   6  11  -1   13.80    5.10
  -6  11   1    2.30    3.40
   6  11  -1   15.80    6.60
   6 -11  -1   11.30    3.40
  -6 -11   1    4.80    4.30
   6  11   0   79.49   12.50
  -6  11   0   75.89   11.00
  -6 -11   0   95.59   12.10
   6 -11   0   71.79   10.80
   6  11   1    8.90    4.80
  -6  11  -1    6.50    3.30
   6 -11   1    8.40    3.40
   6 -11   1    1.90    7.40
   6  11   2   -4.40    3.30
  -6  11  -2   -1.10    2.90
   6 -11   2    6.00    4.40
   6 -11   2   -1.10    2.90
   7   0 -16    5.40    7.00
   7   0 -16    1.30    5.80
   7   0 -16   -1.30    5.20
   7   0 -15   -2.50    4.70
   7   0 -15    0.20    5.60
   7   0 -15   -5.40    4.80
   7   0 -14   54.79   11.10
   7   0 -14   46.90   10.90
   7   0 -14   56.29   12.90
   7   0 -13    0.80    4.10
   7   0 -13    6.50    4.60
   7   0 -13    0.40    4.20
   7   0 -12   57.99   10.70
   7   0 -12   50.89   11.80
   7   0 -12   61.89   10.40
   7   0 -11   -1.00    2.60
   7   0 -11   -0.50    3.10
   7   0 -11    1.20    3.60
   7   0 -10    8.80    4.70
   7   0 -10    5.70    3.40
   7   0 -10    7.90    3.80
  -7   0  10    6.00    2.10
  -7   0   9   -0.20    1.30
   7   0  -9    1.70    2.90
   7   0  -9    2.30    2.80
   7   0  -9   -0.30    2.20
   7   0  -8  614.04   65.59
  -7   0   8  529.25   64.09
  -7   0   8  636.34   64.19
   7   0  -8  649.64   65.79
   7   0  -8  521.35   66.29
   7   0  -7   -0.20    1.00
   7   0  -7    1.00    2.10
   7   0  -7   -0.40    2.10
   7   0  -7    2.10    2.30
  -7   0   7   -0.70    1.00
   7   0  -6   50.59    7.50
   7   0  -6   50.59    7.50
   7   0  -6   49.70    6.40
  -7   0   6   51.59    6.00
   7   0  -6   38.40    7.70
   7   0  -5   -0.40    1.60
   7   0  -5   -0.20    1.10
   7   0  -5   -0.70    1.50
  -7   0   5   -0.80    0.80
   7   0  -5    0.60    1.60
   7   0  -4  292.17   31.90
   7   0  -4  290.77   31.60
   7   0  -4  292.87   32.00
  -7   0   4  259.47   31.10
  -7   0   3    0.90    0.90
   7   0  -3   -0.90    1.40
   7   0  -3   -1.20    0.90
   7   0  -3    0.40    1.10
   7   0  -3    0.20    1.10
   7   0  -2  238.48   29.80
  -7   0   2  269.17   29.50
   7   0  -2  273.07   30.00
   7   0  -2  290.47   29.90
  -7   0   1   -0.60    0.60
   7   0  -1   -0.30    1.00
   7   0  -1   -1.40    0.60
  -7   0   1   -0.50    0.90
   7   0  -1    0.50    1.00
  -7   0   1    0.70    0.50
   7   0   0    3.10    1.50
   7   0   0    4.70    1.40
  -7   0   0    5.30    1.10
  -7   0   0    5.00    1.20
  -7   0   0    9.10    1.90
  -7   0   0    7.20    1.70
   7   0   0    6.80    1.40
  -7   0  -1    0.70    0.60
   7   0   1    1.20    0.90
  -7   0  -1   -0.80    0.90
  -7   0  -1    1.70    1.30
  -7   0  -1    1.60    1.30
   7   0   1   -0.20    0.70
   7   0   1    1.30    1.00
  -7   0  -2  337.17   36.50
  -7   0  -2  305.87   37.10
  -7   0  -2  316.87   36.80
  -7   0  -2  320.17   37.10
   7   0   2  354.56   37.00
   7   0   2  343.97   36.80
  -7   0  -3   -2.60    1.10
  -7   0  -3    1.10    1.40
   7   0   3   -0.20    0.80
  -7   0  -3    0.30    1.60
   7   0   3    1.20    1.30
  -7   0  -3   -1.20    1.20
  -7   0  -4   82.79   10.40
  -7   0  -4   75.99    9.60
  -7   0  -4   79.49   10.80
   7   0   4   72.39    9.40
  -7   0  -4  102.79   11.60
   7   0   4   83.89    9.90
  -7   0  -5    1.70    2.10
   7   0   5   -0.70    1.30
  -7   0  -5    2.60    2.30
   7   0   5   -1.10    0.90
  -7   0  -5   -0.40    1.90
  -7   0  -5   -0.20    2.10
  -7   0  -6   10.30    2.90
  -7   0  -6    6.10    3.30
  -7   0  -6    4.80    2.90
  -7   0  -6    8.80    3.10
   7   0   6    5.70    1.90
  -7   0  -7    2.00    3.00
  -7   0  -7    3.60    3.10
   7   0   7    2.00    1.50
  -7   0  -7   -2.30    4.20
  -7   0  -7    2.00    2.90
  -7   0  -7   -2.80    2.50
  -7   0  -8   -0.70    2.80
   7   0   8    1.20    1.40
  -7   0  -8   -2.80    4.80
  -7   0  -8    7.50    3.80
  -7   0  -8    7.00    3.50
  -7   0  -9   -5.40    7.30
  -7   0  -9    3.80    3.80
  -7   0  -9   -2.70    3.30
  -7   0  -9    3.20    3.80
   7   0   9   -1.10    1.30
   7   0  10   13.10    3.00
  -7   0 -10   10.90    4.80
  -7   0 -10   12.00    5.10
  -7   0 -10   10.30    5.10
  -7   0 -11    0.90    4.60
  -7   0 -11   -2.60    4.30
   7   0  11    3.60    2.10
  -7   0 -12  345.17   45.80
  -7   0 -12  409.66   45.10
  -7   0 -13   -3.20    5.30
  -7   0 -13    2.50    5.10
   7   1 -16   15.40    6.90
   7   1 -16    3.00    6.50
   7   1 -16    2.60    6.10
   7  -1 -16   10.80    6.50
   7  -1 -16   -5.30    6.00
   7  -1 -16   -5.90    5.60
   7   1 -15   -3.30    4.80
   7   1 -15    2.80    5.60
   7   1 -15    6.20    6.20
   7  -1 -15   -4.60    5.20
   7  -1 -15   -4.80    5.20
   7  -1 -15    2.40    6.40
   7   1 -14   -4.90    4.60
   7   1 -14    0.00    5.10
   7   1 -14   -0.30    4.90
   7  -1 -14   -1.60    4.60
   7  -1 -14   -1.10    4.50
   7  -1 -14   -2.10    4.90
   7   1 -13  113.19   17.90
   7   1 -13  140.29   19.30
   7   1 -13  108.59   21.10
   7  -1 -13  121.99   18.50
   7  -1 -13  144.09   19.40
   7  -1 -13  128.09   18.90
   7   1 -12  171.58   21.10
   7   1 -12  161.08   23.60
   7   1 -12  145.29   21.90
   7  -1 -12  148.29   21.90
   7  -1 -12  210.98   21.80
   7  -1 -12  150.98   22.20
   7   1 -11   -0.90    2.50
   7   1 -11    1.20    3.60
   7   1 -11   -5.50    2.40
   7   1 -11    1.30    3.50
   7  -1 -11    0.20    2.70
  -7  -1  11   -3.20    1.20
   7  -1 -11    3.10    3.60
   7  -1 -11    1.70    3.60
   7   1 -10    0.10    3.10
   7   1 -10    3.50    3.30
   7   1 -10    5.60    2.60
   7   1 -10    1.70    3.30
  -7  -1  10    3.00    1.90
   7  -1 -10    6.50    3.70
   7  -1 -10    3.70    3.30
   7  -1 -10    6.30    3.70
   7   1  -9   15.10    3.60
   7   1  -9   26.10    5.00
   7   1  -9   11.80    4.50
   7   1  -9   11.70    5.10
  -7  -1   9   19.20    3.30
   7  -1  -9   11.40    4.50
   7  -1  -9   18.10    4.90
   7  -1  -9    8.20    3.90
   7   1  -8    5.50    3.60
   7   1  -8    3.60    2.80
   7   1  -8    5.60    2.20
  -7   1   8    5.10    1.70
   7   1  -8    8.50    2.00
   7   1  -8    5.50    3.10
   7  -1  -8    4.70    3.00
  -7  -1   8    2.70    1.70
   7  -1  -8    7.90    3.30
  -7  -1   8    4.90    1.60
   7  -1  -8    6.20    3.30
   7   1  -7   40.90    6.20
   7   1  -7   52.59    7.40
   7   1  -7   42.80    5.80
   7   1  -7   36.70    6.90
  -7   1   7   35.90    5.40
   7   1  -7   37.80    8.30
   7  -1  -7   49.60    7.70
  -7  -1   7   32.20    5.50
  -7  -1   7   45.30    5.70
   7  -1  -7   50.79    8.00
   7  -1  -7   49.70    7.50
   7   1  -6   -1.20    1.90
   7   1  -6    1.10    1.40
   7   1  -6    0.70    2.00
  -7   1   6    0.50    1.10
   7   1  -6    0.20    1.30
   7   1  -6    0.10    2.10
  -7  -1   6    1.50    1.10
  -7  -1   6    3.70    1.20
   7  -1  -6    0.70    1.10
   7  -1  -6    0.00    1.90
   7  -1  -6    1.50    2.10
   7  -1  -6    0.70    1.70
   7   1  -5    0.40    2.20
  -7   1   5   -1.30    0.80
   7   1  -5    1.00    1.40
   7   1  -5   -1.10    1.30
   7   1  -5   -0.20    1.40
   7   1  -5    0.50    1.60
  -7  -1   5    0.90    0.90
   7  -1  -5   -0.90    1.00
   7  -1  -5   -0.90    1.60
   7  -1  -5   -2.30    1.30
   7   1  -4   88.89   10.50
   7   1  -4   84.59   10.70
   7   1  -4   79.49   11.70
   7   1  -4   80.99   10.50
   7   1  -4   79.19   10.20
  -7   1   4   80.99    9.90
   7  -1  -4   99.39   10.30
   7  -1  -4   91.09   10.70
  -7  -1   4   82.99    9.90
   7  -1  -4   90.19   10.70
   7   1  -3  131.39   13.50
   7   1  -3  117.39   13.60
  -7   1   3  121.09   12.60
   7   1  -3  101.69   13.30
  -7   1   3  104.29   12.90
   7   1  -3  119.89   13.70
   7  -1  -3  111.69   13.30
   7  -1  -3  128.59   13.20
   7  -1  -3   99.49   13.40
  -7  -1   3  113.09   13.00
   7  -1  -3  104.69   13.50
  -7   1   2   12.20    2.20
   7   1  -2   14.40    2.80
   7   1  -2   15.70    3.00
  -7   1   2   15.10    2.00
   7   1  -2   10.20    2.60
  -7   1   2   15.20    2.30
   7  -1  -2   12.70    2.60
   7  -1  -2   14.30    2.40
  -7  -1   2   15.10    2.10
   7  -1  -2   13.40    2.50
  -7   1   1    0.90    0.80
  -7   1   1    1.90    1.00
  -7   1   1    1.00    1.10
   7   1  -1    4.10    1.70
   7   1  -1    1.90    1.20
   7  -1  -1    1.60    1.10
  -7  -1   1    2.20    0.80
   7  -1  -1    1.90    1.00
  -7  -1   1    2.30    1.30
   7  -1  -1    0.10    0.90
  -7  -1   1    1.90    0.60
  -7   1   0   35.60    4.90
   7   1   0   32.10    5.10
   7   1   0   40.00    5.70
  -7   1   0   37.30    5.20
   7  -1   0   44.30    5.50
   7  -1   0   46.30    4.90
  -7  -1   0   31.10    5.20
   7  -1   0   39.80    5.00
  -7  -1   0   31.30    5.10
  -7  -1   0   43.10    4.50
  -7  -1   0   34.00    4.50
  -7   1  -1  188.18   20.50
  -7   1  -1  203.38   21.10
  -7   1  -1  187.58   21.20
   7   1   1  177.68   21.10
   7   1   1  184.88   21.30
   7  -1   1  196.68   21.00
  -7  -1  -1  197.08   20.50
  -7  -1  -1  189.08   20.70
  -7  -1  -1  181.48   21.20
  -7  -1  -1  165.58   20.80
   7  -1   1  183.78   21.20
  -7  -1  -1  173.28   21.30
  -7   1  -2 1448.56  156.88
  -7   1  -2 1546.65  156.78
  -7   1  -2 1218.48  156.28
   7   1   2 1419.66  156.88
   7   1   2 1441.06  156.68
  -7   1  -2 1501.15  156.88
  -7   1  -2 1456.65  156.08
  -7  -1  -2 1389.96  156.88
  -7  -1  -2 1635.64  156.38
  -7  -1  -2 1417.16  156.98
   7  -1   2 1463.35  156.78
   7  -1   2 1374.96  156.48
  -7  -1  -2 1329.77  156.48
   7   1   3   16.20    3.00
   7   1   3   18.40    3.60
  -7   1  -3   24.40    4.10
  -7   1  -3   16.20    3.20
  -7   1  -3   23.40    3.80
  -7   1  -3   18.10    3.80
   7  -1   3   18.20    3.40
  -7  -1  -3   20.40    4.00
  -7  -1  -3   39.20    5.70
   7  -1   3   13.40    2.90
  -7  -1  -3   20.20    3.40
  -7  -1  -3   18.90    3.80
  -7  -1  -3   17.50    2.90
  -7   1  -4   47.70    6.70
  -7   1  -4   44.50    6.90
   7   1   4   39.90    5.90
  -7   1  -4   39.30    6.20
   7   1   4   48.30    6.60
  -7   1  -4   44.20    7.10
  -7  -1  -4   39.60    6.10
  -7  -1  -4   63.09    8.00
  -7  -1  -4   42.50    7.10
   7  -1   4   36.70    5.70
   7  -1   4   43.70    6.40
  -7  -1  -4   56.89    7.50
  -7  -1  -4   40.30    5.70
   7   1   5   55.39    8.00
  -7   1  -5   57.09    8.80
  -7   1  -5   55.49    8.60
  -7   1  -5   74.79   10.00
  -7   1  -5   80.79    9.80
   7  -1   5   53.09    8.20
  -7  -1  -5   79.29   10.10
  -7  -1  -5   66.09    8.10
  -7  -1  -5   56.29    9.40
   7  -1   5   55.99    7.90
  -7  -1  -5   66.69    8.70
   7   1   6   10.10    2.20
  -7   1  -6    8.30    3.20
  -7   1  -6   16.50    4.30
  -7   1  -6    7.30    2.80
  -7   1  -6    2.20    2.40
   7  -1   6   10.50    3.40
  -7  -1  -6    9.30    3.00
  -7  -1  -6    9.70    3.00
  -7  -1  -6    5.50    3.20
  -7   1  -7  199.88   25.40
  -7   1  -7  199.38   25.70
  -7   1  -7  231.68   25.80
  -7   1  -7  224.58   26.10
   7   1   7  210.18   24.50
  -7  -1  -7  218.48   26.20
  -7  -1  -7  219.28   25.10
  -7  -1  -7  212.88   25.30
  -7  -1  -7  258.27   26.90
   7  -1   7  191.08   24.40
   7   1   8   17.00    3.50
  -7   1  -8   16.20    5.30
  -7   1  -8   19.50    5.00
  -7   1  -8   24.40    5.50
  -7   1  -8   30.60    6.40
  -7  -1  -8    8.20    4.90
  -7  -1  -8   30.70    5.60
  -7  -1  -8   25.80    7.30
  -7  -1  -8   27.20    5.20
   7  -1   8   12.80    3.40
  -7   1  -9    5.60    4.40
  -7   1  -9    2.10    3.60
   7   1   9    1.70    1.70
  -7   1  -9    0.90    3.60
  -7   1  -9    6.10    4.00
  -7  -1  -9    7.90    4.30
  -7  -1  -9   -1.10    6.00
   7  -1   9    1.10    1.80
  -7  -1  -9   -0.80    3.70
  -7  -1  -9   -1.00    2.70
  -7   1 -10    2.30    3.60
  -7   1 -10    5.30    4.60
   7   1  10    4.80    2.00
  -7   1 -10   -1.80    4.00
  -7  -1 -10    0.00    3.70
  -7  -1 -10    0.00    3.80
  -7  -1 -10   -0.40    4.00
  -7  -1 -10   -4.00    7.00
   7  -1  10    0.00    1.50
   7   1  11   21.20    5.90
  -7   1 -11   21.20    6.60
  -7   1 -11   37.60    8.00
  -7  -1 -11   20.50   10.10
  -7  -1 -11   17.80    6.40
  -7  -1 -11   30.80    7.70
   7  -1  11   25.90    4.40
  -7   1 -12   52.69   11.00
  -7   1 -12   59.49   12.10
  -7  -1 -12   85.99   13.80
  -7  -1 -12  107.29   13.10
   7  -1  12   66.19    9.30
  -7   1 -13    8.60    6.20
  -7   1 -13    9.20    5.80
  -7  -1 -13   19.20    7.10
  -7  -1 -13   19.40    6.60
   7   2 -16    2.90    5.50
   7   2 -16    0.20    5.30
   7   2 -16    0.60    6.00
   7  -2 -16   -7.00    6.10
   7  -2 -16    1.40    5.90
   7  -2 -16   -6.20    6.90
   7   2 -15   -3.10    5.00
   7   2 -15    1.10    5.50
   7   2 -15   10.20    5.60
   7  -2 -15    0.30    6.00
   7  -2 -15   -8.20    5.90
   7  -2 -15   -0.50    5.10
   7   2 -14   15.50    6.20
   7   2 -14   10.10    6.90
   7   2 -14   16.70    6.50
   7  -2 -14   33.70    8.10
   7  -2 -14   16.60    6.50
   7  -2 -14   14.80    7.80
   7   2 -13   35.70    8.00
   7   2 -13   45.90   12.60
   7   2 -13   60.09   10.90
   7   2 -13   77.09   11.10
   7  -2 -13   58.89   10.80
   7  -2 -13   53.69   11.40
   7  -2 -13   43.30    9.80
   7   2 -12   32.30    7.40
   7   2 -12   26.90    6.40
   7   2 -12   10.30    6.30
   7   2 -12   14.10    4.60
   7  -2 -12   37.30    7.50
   7  -2 -12   19.80    6.20
  -7  -2  12   26.50    4.50
   7  -2 -12   17.50    7.20
   7   2 -11    2.90    2.80
   7   2 -11    2.70    3.40
   7   2 -11   -2.00    3.40
   7   2 -11   -0.30    3.80
   7  -2 -11    2.10    3.50
  -7  -2  11    3.20    2.20
   7  -2 -11    3.10    3.80
   7  -2 -11   -0.50    3.40
   7   2 -10    1.10    3.00
   7   2 -10    2.00    3.70
   7   2 -10    3.80    3.80
   7   2 -10    3.00    2.50
   7  -2 -10    1.20    3.30
  -7  -2  10    3.20    2.10
   7  -2 -10    0.10    3.20
   7  -2 -10    0.80    2.70
   7   2  -9    5.50    2.70
   7   2  -9    8.70    3.60
   7   2  -9    7.00    4.90
   7   2  -9   10.60    4.40
   7  -2  -9   14.30    4.30
   7  -2  -9    6.50    3.70
   7  -2  -9    5.60    3.70
  -7  -2   9    5.20    2.20
   7   2  -8   58.29    7.30
   7   2  -8   42.30   10.10
  -7   2   8   51.09    6.80
   7   2  -8   52.09    8.00
   7   2  -8   44.30    7.80
   7   2  -8   34.70    7.90
  -7  -2   8   54.29    7.10
   7  -2  -8   55.29    8.90
   7  -2  -8   59.29    9.00
  -7  -2   8   51.69    6.70
   7  -2  -8   43.20    8.20
   7   2  -7    7.90    2.80
   7   2  -7    2.90    1.70
   7   2  -7    0.10    1.70
  -7   2   7    1.20    1.30
   7   2  -7    4.70    3.60
   7   2  -7   -2.20    1.90
  -7  -2   7    2.80    1.30
   7  -2  -7    6.40    3.10
  -7  -2   7    3.40    1.60
   7  -2  -7    0.90    2.20
   7  -2  -7    3.60    2.90
   7   2  -6    2.30    1.80
   7   2  -6   -0.30    2.40
   7   2  -6   -0.80    2.00
   7   2  -6    2.20    1.70
   7   2  -6    1.20    1.80
  -7   2   6    5.10    1.60
   7  -2  -6    1.90    1.10
  -7  -2   6    0.30    1.50
  -7  -2   6    0.80    1.30
   7  -2  -6    0.10    1.90
   7  -2  -6    2.50    2.20
   7  -2  -6    0.40    2.20
  -7  -2   6    1.90    1.20
   7   2  -5   48.90    6.90
   7   2  -5   51.29    6.90
   7   2  -5   44.10    7.20
  -7   2   5   47.50    6.00
   7   2  -5   38.80    6.50
  -7   2   5   42.10    5.50
   7   2  -5   46.60    6.40
  -7  -2   5   44.50    5.80
   7  -2  -5   42.70    6.90
   7  -2  -5   49.30    6.20
  -7  -2   5   37.70    6.00
   7  -2  -5   43.10    7.00
  -7  -2   5   58.19    7.00
   7   2  -4   17.90    3.50
  -7   2   4   18.70    2.50
   7   2  -4   14.00    3.30
   7   2  -4   14.00    2.90
  -7   2   4   15.80    2.70
   7   2  -4   16.90    3.70
   7  -2  -4   14.30    2.80
  -7  -2   4   20.50    3.10
  -7  -2   4   18.20    2.60
   7  -2  -4   11.50    3.20
  -7  -2   4   11.20    2.90
   7  -2  -4   20.10    3.80
   7   2  -3  538.75   60.69
   7   2  -3  535.15   60.69
   7   2  -3  565.14   60.49
  -7   2   3  566.04   59.89
   7  -2  -3  491.85   60.29
   7  -2  -3  557.04   60.19
   7  -2  -3  583.64   60.49
   7  -2  -3  564.34   59.99
  -7  -2   3  525.55   59.89
  -7  -2   3  532.65   60.29
  -7   2   2  565.74   61.89
   7   2  -2  583.84   62.39
   7   2  -2  572.54   62.59
   7  -2  -2  576.84   61.89
  -7  -2   2  551.74   61.79
   7  -2  -2  548.25   62.09
   7  -2  -2  552.94   62.19
   7   2  -1   11.60    1.90
  -7   2   1   11.40    2.20
   7   2  -1   12.50    2.90
   7   2  -1   11.00    2.60
  -7   2   1   13.10    2.10
   7  -2  -1   10.80    2.20
  -7  -2   1   13.50    1.90
   7  -2  -1   15.60    2.60
   7  -2  -1    9.60    1.90
   7   2   0    1.90    1.30
  -7   2   0    0.10    1.10
  -7   2   0    0.30    1.00
   7   2   0   -0.60    1.20
   7   2   0    0.10    0.70
  -7  -2   0    0.20    0.60
   7  -2   0   -0.30    1.00
   7  -2   0    1.50    1.30
   7  -2   0    0.40    0.90
  -7  -2   0    0.90    1.30
  -7  -2   0    0.20    0.60
   7   2   1  479.05   51.69
  -7   2  -1  493.85   51.49
   7   2   1  461.55   51.89
  -7   2  -1  507.45   51.59
  -7  -2  -1  459.15   50.89
  -7  -2  -1  451.95   51.69
  -7  -2  -1  435.36   51.09
   7  -2   1  454.65   51.59
   7  -2   1  467.35   51.29
  -7   2  -2   39.20    6.00
   7   2   2   46.00    6.20
  -7   2  -2   51.79    6.50
   7   2   2   50.99    6.70
   7  -2   2   40.00    5.90
  -7  -2  -2   42.60    5.60
   7  -2   2   39.50    5.60
  -7  -2  -2   34.50    6.30
  -7  -2  -2   45.30    5.30
   7   2   3   49.00    6.50
   7   2   3   37.80    5.80
  -7   2  -3   37.80    6.20
  -7   2  -3   45.30    6.20
  -7   2  -3   36.70    5.80
  -7   2  -3   49.10    6.50
  -7  -2  -3   45.30    5.30
  -7  -2  -3   45.80    6.10
   7  -2   3   31.70    5.30
   7  -2   3   36.10    5.80
  -7  -2  -3   49.10    5.80
  -7  -2  -3   42.40    6.50
  -7   2  -4    4.70    2.00
  -7   2  -4    4.10    2.10
   7   2   4    3.40    1.60
   7   2   4    0.70    1.80
  -7   2  -4    2.20    1.90
  -7   2  -4    2.90    1.90
   7  -2   4    1.60    1.40
  -7  -2  -4    8.10    5.20
  -7  -2  -4    3.10    1.60
  -7  -2  -4    4.00    2.30
   7  -2   4    1.70    1.70
  -7  -2  -4    4.60    1.60
   7   2   5    4.00    1.70
  -7   2  -5    0.10    2.50
  -7   2  -5    2.30    2.20
  -7   2  -5    5.30    2.60
  -7   2  -5    3.70    2.30
  -7  -2  -5    6.90    3.30
  -7  -2  -5    4.10    2.00
   7  -2   5    4.80    1.70
   7  -2   5   -1.40    1.70
  -7  -2  -5   13.60    5.80
  -7  -2  -5   -1.70    1.60
  -7  -2  -5    7.30    2.20
  -7   2  -6  151.48   20.20
  -7   2  -6  200.28   20.60
  -7   2  -6  151.88   19.90
   7   2   6  154.28   19.30
  -7   2  -6  174.18   20.30
  -7  -2  -6  172.98   20.60
  -7  -2  -6  173.48   19.70
  -7  -2  -6  180.68   19.40
   7  -2   6  152.18   19.10
  -7  -2  -6  171.28   19.30
   7  -2   6  178.38   19.60
  -7   2  -7    3.40    3.30
  -7   2  -7    0.50    2.50
   7   2   7    1.00    1.70
  -7   2  -7   -0.80    2.00
  -7   2  -7    4.20    3.50
  -7  -2  -7    1.00    3.30
  -7  -2  -7    2.10    2.40
   7  -2   7    1.10    1.60
  -7  -2  -7    1.20    5.90
  -7  -2  -7   -0.20    2.10
  -7   2  -8   14.60    4.90
  -7   2  -8   12.40    5.30
   7   2   8   17.80    3.80
  -7   2  -8   31.50    6.10
  -7   2  -8   27.50    5.80
  -7  -2  -8   25.10    4.80
  -7  -2  -8   20.30    4.70
   7  -2   8   16.20    3.60
  -7  -2  -8   27.10    6.40
  -7  -2  -8   25.60    8.70
  -7   2  -9   -2.70    2.70
  -7   2  -9   -1.80    3.00
  -7   2  -9   -2.10    3.10
   7   2   9    0.00    1.70
  -7   2  -9   -2.90    2.50
  -7  -2  -9   -3.20    3.00
  -7  -2  -9   -2.70    2.60
  -7  -2  -9   -0.30    7.20
   7  -2   9   -2.00    1.80
  -7  -2  -9    8.00    3.60
  -7   2 -10    9.40    4.50
  -7   2 -10   -0.80    3.40
  -7   2 -10    0.80    3.80
  -7   2 -10    5.50    4.40
   7   2  10    2.80    1.80
  -7  -2 -10    5.20    4.10
  -7  -2 -10  -12.70    7.20
  -7  -2 -10   -2.70    2.70
   7  -2  10    1.30    2.20
  -7  -2 -10    0.10    4.60
  -7   2 -11   14.10    5.60
  -7   2 -11   14.50    6.10
  -7  -2 -11   10.90    6.30
  -7  -2 -11   16.30    5.40
   7  -2  11   12.90    3.40
  -7  -2 -11   10.90   10.60
  -7   2 -12    4.80    4.50
  -7   2 -12   -1.20    4.30
  -7  -2 -12    2.20    4.90
  -7  -2 -12  -20.10    9.20
   7  -2  12    4.70    2.10
  -7  -2 -12   -6.80    4.40
  -7   2 -13   -0.30    4.80
  -7   2 -13   -6.80    4.60
  -7  -2 -13    0.20    5.30
  -7  -2 -13    0.90    5.20
   7   3 -16   12.40    6.60
   7   3 -16    0.30    6.60
   7  -3 -16   -8.90    7.60
   7  -3 -16    5.70    6.50
   7   3 -15    1.80    4.70
   7   3 -15    4.40    4.80
   7   3 -15    0.10    5.80
   7  -3 -15   -0.30    6.00
   7  -3 -15   -0.70    5.50
   7  -3 -15   -9.20    7.00
   7   3 -14   20.10    5.60
   7   3 -14   11.70    7.70
   7   3 -14   19.00    6.60
   7   3 -14   17.40    6.00
   7  -3 -14   10.20    8.00
   7  -3 -14   14.90    6.70
   7  -3 -14   28.00    7.40
   7   3 -13   38.10    8.20
   7   3 -13   36.30    8.60
   7   3 -13   22.80   10.10
   7   3 -13   25.60    7.10
   7  -3 -13   42.40    9.40
  -7  -3  13   40.60    6.60
   7  -3 -13   39.10    8.70
   7  -3 -13   48.40   10.70
   7   3 -12   26.70    7.40
   7   3 -12   28.10   10.30
   7   3 -12   30.60    7.80
   7   3 -12   32.40    7.30
   7  -3 -12   48.90    9.40
   7  -3 -12   30.30    7.90
   7  -3 -12   49.30   10.10
  -7  -3  12   43.40    6.50
   7   3 -11    4.50    4.00
   7   3 -11    7.70    3.50
   7   3 -11    5.90    3.90
   7   3 -11    9.80    6.30
   7  -3 -11    6.10    4.40
   7  -3 -11   11.30    4.90
   7  -3 -11    1.50    5.20
  -7  -3  11    8.50    2.80
   7   3 -10    9.60    4.00
   7   3 -10    6.30    3.90
   7   3 -10    3.90    2.90
   7   3 -10    0.40    4.00
  -7  -3  10    2.20    2.20
   7  -3 -10    4.80    3.70
   7  -3 -10    3.60    4.80
   7  -3 -10    4.20    3.70
   7   3  -9  297.87   40.30
   7   3  -9  342.87   37.40
   7   3  -9  351.46   36.40
   7   3  -9  257.57   36.90
   7   3  -9  323.17   37.80
   7  -3  -9  361.66   37.70
   7  -3  -9  322.27   37.70
  -7  -3   9  343.97   36.50
   7   3  -8  290.97   35.00
   7   3  -8  289.47   34.60
   7   3  -8  304.17   34.00
   7   3  -8  274.67   37.30
   7   3  -8  300.77   34.50
   7  -3  -8  327.57   34.90
   7  -3  -8  309.97   35.10
  -7  -3   8  305.97   34.00
   7   3  -7  108.89   17.00
   7   3  -7  116.59   14.40
   7   3  -7  124.39   16.40
   7   3  -7   97.09   14.40
   7   3  -7  105.99   14.70
  -7   3   7  109.39   13.80
   7  -3  -7  122.69   14.90
   7  -3  -7  122.39   15.20
  -7  -3   7  127.69   13.80
  -7  -3   7  118.49   14.20
   7  -3  -7  135.39   15.20
  -7  -3   7  130.69   14.60
  -7   3   6    0.60    1.10
   7   3  -6    1.10    1.80
   7   3  -6    1.30    1.60
   7   3  -6   -2.00    1.60
  -7   3   6    0.90    1.30
   7   3  -6    1.20    1.80
   7  -3  -6    2.20    2.30
  -7  -3   6    1.40    1.50
  -7  -3   6    2.80    1.30
   7  -3  -6    1.60    2.20
  -7  -3   6    1.30    2.00
  -7   3   5   12.10    2.20
   7   3  -5    9.00    3.00
   7   3  -5    9.90    2.80
   7   3  -5    9.40    2.70
   7   3  -5   13.20    3.80
  -7  -3   5   17.50    2.60
  -7  -3   5   17.60    3.40
   7  -3  -5    9.30    3.40
   7  -3  -5   11.90    3.20
   7  -3  -5   12.60    2.40
  -7  -3   5   16.60    3.10
   7   3  -4    6.40    2.10
   7   3  -4    5.90    2.50
   7   3  -4    7.90    2.30
  -7   3   4    7.90    1.70
   7   3  -4    8.30    2.90
   7  -3  -4    6.00    2.60
   7  -3  -4   12.50    2.10
   7  -3  -4   10.30    2.80
  -7  -3   4    8.90    1.80
  -7  -3   4    9.20    2.30
  -7  -3   4    3.20    2.20
  -7   3   3  148.89   15.60
   7   3  -3  142.39   16.50
   7   3  -3  145.29   16.50
   7   3  -3  142.29   16.20
  -7  -3   3  138.49   15.50
   7  -3  -3  134.99   15.90
   7  -3  -3  142.09   16.10
   7  -3  -3  137.89   15.70
  -7  -3   3  119.39   16.20
  -7  -3   3  129.49   16.00
   7  -3  -3  128.99   16.00
   7   3  -2  590.34   70.19
   7   3  -2  624.14   69.99
  -7   3   2  639.54   69.39
   7  -3  -2  715.63   69.89
   7  -3  -2  638.04   69.69
   7  -3  -2  610.14   69.59
  -7  -3   2  600.84   70.09
  -7  -3   2  657.53   69.29
   7  -3  -2  621.04   69.39
  -7  -3   2  624.64   69.89
   7   3  -1    9.70    2.70
  -7   3   1    5.70    1.60
   7   3  -1    4.40    1.90
   7  -3  -1   13.40    2.40
  -7  -3   1    7.70    2.30
  -7  -3   1    6.20    2.10
  -7  -3   1    6.40    1.40
   7  -3  -1    4.60    1.60
   7  -3  -1   11.80    2.00
   7   3   0   28.90    5.10
  -7   3   0   33.00    4.40
   7   3   0   28.60    4.90
  -7  -3   0   31.40    4.70
   7  -3   0   23.90    4.20
   7  -3   0   29.40    4.20
   7  -3   0   46.70    4.60
  -7  -3   0   28.20    4.60
  -7  -3   0   23.30    4.70
  -7  -3   0   30.50    3.80
  -7   3  -1   40.10    5.30
  -7   3  -1   37.60    5.20
   7   3   1   39.40    5.70
   7   3   1   43.30    6.20
  -7  -3  -1   39.00    5.60
   7  -3   1   39.90    5.10
   7  -3   1   35.90    5.50
  -7  -3  -1   39.40    5.80
  -7  -3  -1   44.90    6.10
  -7  -3  -1   32.80    4.30
  -7   3  -2    1.90    1.70
  -7   3  -2    2.70    1.80
   7   3   2    4.00    2.00
   7   3   2    7.30    2.60
   7  -3   2    3.60    1.70
   7  -3   2    3.10    1.40
  -7  -3  -2    3.90    2.10
  -7  -3  -2    2.60    1.10
  -7  -3  -2    6.80    2.20
  -7  -3  -2    6.60    2.00
   7   3   3   26.90    4.80
   7   3   3   29.70    5.20
  -7   3  -3   29.20    4.90
  -7   3  -3   30.10    5.00
   7  -3   3   31.90    4.90
  -7  -3  -3   29.70    5.30
  -7  -3  -3   24.10    4.70
  -7  -3  -3   32.40    4.30
   7  -3   3   34.30    4.60
  -7  -3  -3   25.50    4.10
   7   3   4    3.00    1.80
  -7   3  -4    6.20    2.40
  -7   3  -4    2.20    2.20
  -7   3  -4    3.50    2.20
  -7   3  -4    2.90    2.10
   7  -3   4    3.00    2.00
  -7  -3  -4    4.70    1.60
   7  -3   4    0.40    1.40
  -7  -3  -4    5.40    2.70
  -7  -3  -4    2.40    1.40
  -7  -3  -4    2.50    1.90
  -7   3  -5   32.40    5.20
   7   3   5   19.10    4.10
  -7   3  -5   27.70    5.10
  -7   3  -5   16.40    4.60
  -7   3  -5   26.20    5.00
  -7  -3  -5   29.50    4.40
  -7  -3  -5   35.50    7.90
   7  -3   5   15.80    3.70
  -7  -3  -5   25.10    4.40
   7  -3   5   31.50    4.60
  -7  -3  -5   26.70    4.20
  -7  -3  -5   26.50    5.70
  -7   3  -6   32.80    5.90
  -7   3  -6   33.10    6.10
  -7   3  -6   20.70    5.50
   7   3   6   28.90    5.10
  -7   3  -6   35.90    6.30
  -7  -3  -6   28.00    6.20
  -7  -3  -6   31.70    5.20
  -7  -3  -6   57.49   10.00
   7  -3   6   37.70    5.40
  -7  -3  -6   25.80    4.80
  -7  -3  -6   31.10    4.90
   7  -3   6   23.50    4.60
  -7   3  -7    0.40    2.70
  -7   3  -7   -1.80    2.60
  -7   3  -7    2.90    3.30
  -7   3  -7    1.90    3.30
   7   3   7   -2.30    1.40
  -7  -3  -7   -0.30    1.90
  -7  -3  -7    2.60    3.50
   7  -3   7    0.10    2.00
  -7  -3  -7    2.80    2.30
  -7  -3  -7   -4.90    6.70
   7  -3   7    0.60    1.60
  -7   3  -8    5.20    3.60
  -7   3  -8    5.10    3.80
   7   3   8    1.00    1.90
  -7   3  -8    2.40    3.60
  -7   3  -8    1.20    3.00
  -7  -3  -8    3.10    3.80
  -7  -3  -8   13.10    3.10
  -7  -3  -8   -9.50    7.60
  -7  -3  -8   -0.10    2.50
   7  -3   8   -2.50    1.30
  -7   3  -9   -2.80    3.00
  -7   3  -9    4.10    3.70
  -7   3  -9    4.50    3.90
  -7   3  -9    0.00    2.60
   7   3   9   -0.20    1.80
  -7  -3  -9    0.80    2.60
  -7  -3  -9    6.00    8.90
  -7  -3  -9   -0.80    2.90
  -7  -3  -9    0.50    4.00
   7  -3   9    1.00    1.70
  -7   3 -10   14.60    5.40
  -7   3 -10   10.00    5.10
  -7   3 -10   12.90    5.00
  -7  -3 -10   30.40    5.70
  -7  -3 -10    7.30    5.20
  -7  -3 -10    8.60    6.00
  -7  -3 -10   21.70   11.00
   7  -3  10    6.90    2.90
  -7   3 -11   29.00    7.50
  -7   3 -11   30.60    8.20
  -7   3 -11   34.60    8.30
  -7  -3 -11   65.99    8.70
   7  -3  11   26.40    5.30
  -7  -3 -11   22.10    7.60
  -7  -3 -11   60.39   15.00
  -7   3 -12    5.10    4.70
  -7   3 -12    7.00    5.30
  -7  -3 -12    4.10    5.50
   7  -3  12    3.80    2.70
  -7  -3 -12    9.60    5.00
  -7  -3 -12   -7.10   12.00
  -7   3 -13   -8.80    4.30
  -7   3 -13    1.00    5.20
  -7  -3 -13  -18.20   15.20
   7  -3  13    4.50    2.40
  -7  -3 -13    9.60    4.80
  -7  -3 -13   12.00    6.70
   7   4 -15    3.00    4.10
   7   4 -15    1.80    4.90
   7   4 -15   -1.40    5.40
   7  -4 -15    7.50    6.70
   7  -4 -15   -5.70    8.10
   7   4 -14    2.50    3.90
   7   4 -14    2.40    4.40
   7   4 -14   -3.70    4.80
   7  -4 -14  -10.50    6.80
   7  -4 -14  -10.00    4.40
  -7  -4  14   -0.10    2.50
   7   4 -13    4.40    3.70
   7   4 -13    1.80    3.60
   7   4 -13    1.10    5.20
   7   4 -13    0.40    3.90
  -7  -4  13    8.20    3.60
   7  -4 -13    1.80    5.00
   7  -4 -13   -5.30    6.80
   7   4 -12   38.70    8.30
   7   4 -12   46.10    9.20
   7   4 -12   50.29    9.10
   7   4 -12   37.60   12.30
  -7  -4  12   68.09    8.30
   7  -4 -12   25.90    8.20
   7  -4 -12   42.20   10.40
   7   4 -11    3.80    4.00
   7   4 -11    9.40    3.90
   7   4 -11    5.40    5.60
   7   4 -11    9.90    4.50
   7  -4 -11   13.40    7.20
  -7  -4  11    5.30    3.00
   7  -4 -11   15.70    5.80
   7   4 -10   33.60    7.60
   7   4 -10   31.40    7.80
   7   4 -10   34.70   11.10
   7   4 -10   40.50    7.70
   7   4 -10   45.30    6.90
  -7  -4  10   48.40    7.10
   7  -4 -10   60.59   10.10
   7  -4 -10   42.40    8.70
   7   4  -9  132.09   21.20
   7   4  -9  122.59   17.90
   7   4  -9  149.59   19.80
   7   4  -9  173.48   18.20
   7   4  -9  151.88   17.40
  -7  -4   9  147.39   17.30
   7  -4  -9  135.99   19.30
   7   4  -8    0.50    2.20
   7   4  -8    1.60    2.20
   7   4  -8   -3.90    2.80
   7   4  -8   -0.60    2.40
   7   4  -8    2.10    3.10
  -7  -4   8    1.20    2.50
  -7  -4   8    2.30    2.10
   7  -4  -8   -4.40    4.60
   7  -4  -8    4.00    3.00
   7   4  -7   51.29    8.50
  -7   4   7   48.00    6.00
   7   4  -7   47.00    7.90
   7   4  -7   42.50    7.00
   7   4  -7   46.40    7.20
  -7  -4   7   44.00    7.20
   7  -4  -7   43.60    7.80
  -7  -4   7   36.40    6.60
  -7   4   6   18.60    3.10
   7   4  -6   15.10    4.40
   7   4  -6   24.00    4.60
   7   4  -6   21.10    4.00
   7   4  -6   14.80    3.90
   7   4  -6   15.90    4.20
   7  -4  -6   26.40    5.20
  -7  -4   6   20.20    3.90
  -7  -4   6   15.50    3.00
  -7  -4   6   21.40    4.30
   7   4  -5   56.89    8.30
   7   4  -5   46.10    7.30
   7   4  -5   45.20    7.00
  -7   4   5   54.49    6.40
   7  -4  -5   48.20    6.00
  -7  -4   5   43.60    6.10
  -7  -4   5   48.30    7.40
   7  -4  -5   38.50    7.10
  -7  -4   5   48.50    7.00
  -7   4   4  162.78   17.60
   7   4  -4  173.28   18.50
   7   4  -4  157.88   18.70
   7   4  -4  137.99   18.50
  -7  -4   4  134.79   18.30
  -7  -4   4  158.28   17.60
   7  -4  -4  147.89   18.30
  -7  -4   4  157.08   18.20
   7  -4  -4  157.58   17.60
  -7   4   3   18.40    3.10
   7   4  -3   19.80    4.40
   7   4  -3   23.80    4.60
   7   4  -3   30.90    4.60
   7  -4  -3   22.30    4.00
  -7  -4   3   21.20    3.00
  -7  -4   3   11.10    3.70
   7  -4  -3   20.70    3.30
  -7  -4   3   14.20    3.40
   7   4  -2  121.19   16.60
   7   4  -2  123.99   16.20
  -7   4   2  141.19   15.60
   7   4  -2  171.58   16.80
  -7  -4   2  113.29   16.20
   7  -4  -2  144.69   15.80
  -7  -4   2  142.79   15.50
  -7  -4   2  130.99   16.10
   7  -4  -2  136.69   16.00
   7  -4  -2  140.59   15.50
  -7   4   1   18.70    3.00
   7   4  -1   17.10    3.80
   7   4  -1   19.20    4.20
  -7  -4   1   16.20    3.80
   7  -4  -1   14.70    2.70
   7  -4  -1   19.90    3.20
  -7  -4   1   17.70    3.60
  -7  -4   1   22.40    2.90
   7  -4  -1   16.50    3.20
   7   4   0  132.49   16.30
  -7   4   0  123.59   15.30
   7   4   0  123.19   15.90
  -7  -4   0  147.69   15.10
   7  -4   0  138.89   15.40
  -7  -4   0  143.49   15.90
   7  -4   0  133.59   15.60
  -7  -4   0  119.69   16.00
  -7  -4   0  134.29   16.00
   7   4   1  170.18   19.80
   7   4   1  174.98   20.10
  -7   4  -1  161.98   19.20
  -7  -4  -1  158.08   19.70
  -7  -4  -1  145.19   19.40
   7  -4   1  180.18   19.20
   7  -4   1  179.68   19.60
  -7  -4  -1  179.18   19.60
   7   4   2    3.80    2.10
   7   4   2    5.90    2.60
  -7   4  -2    4.20    1.90
  -7   4  -2    0.40    1.50
   7  -4   2    2.90    1.60
   7  -4   2    4.00    2.00
  -7  -4  -2    4.90    2.20
  -7  -4  -2    3.10    2.20
   7   4   3   56.69    8.10
  -7   4  -3   65.99    7.80
   7   4   3   49.50    7.50
  -7   4  -3   40.90    6.90
  -7  -4  -3   60.29    7.70
  -7  -4  -3   61.39    8.10
   7  -4   3   45.20    6.80
   7  -4   3   44.10    7.00
  -7   4  -4    0.80    1.80
  -7   4  -4    1.10    2.10
   7   4   4   -0.30    1.70
  -7  -4  -4    2.30    1.40
  -7  -4  -4    1.10    1.30
  -7  -4  -4    2.90    2.00
  -7  -4  -4    4.60    2.70
   7  -4   4   -0.10    1.90
   7  -4   4   -0.50    1.40
  -7   4  -5    1.50    2.10
  -7   4  -5   -1.80    2.00
   7   4   5    2.60    1.80
  -7   4  -5   -1.60    2.10
  -7   4  -5    2.20    2.40
  -7  -4  -5    1.00    1.60
  -7  -4  -5   -2.50    2.20
   7  -4   5   -1.40    1.70
   7  -4   5    0.90    1.60
  -7  -4  -5    1.10    1.50
  -7  -4  -5    0.90    1.40
  -7   4  -6   13.20    4.40
   7   4   6   12.90    3.40
  -7   4  -6   15.40    3.90
  -7   4  -6   13.30    4.00
  -7   4  -6   13.80    4.10
  -7  -4  -6   16.70    3.30
  -7  -4  -6   12.00    4.40
   7  -4   6   13.00    3.60
  -7  -4  -6   27.00    8.30
   7  -4   6   13.90    3.10
  -7  -4  -6   15.90    3.40
   7   4   7   28.70    5.10
  -7   4  -7   35.00    6.50
  -7   4  -7   30.00    6.10
  -7   4  -7   31.50    6.40
  -7   4  -7   20.50    5.60
  -7  -4  -7   20.70    6.20
  -7  -4  -7   33.40    5.30
   7  -4   7   25.40    5.30
   7  -4   7   21.30    4.50
  -7  -4  -7   32.90    5.30
  -7  -4  -7   52.79   11.10
  -7   4  -8  134.39   16.60
  -7   4  -8  152.38   17.10
  -7   4  -8   89.19   15.50
   7   4   8  107.49   14.00
  -7   4  -8  132.79   16.70
  -7  -4  -8  135.59   14.30
  -7  -4  -8   99.29   16.40
   7  -4   8  101.79   13.70
  -7  -4  -8  118.39   14.80
  -7   4  -9    4.00    4.00
  -7   4  -9    5.20    3.90
   7   4   9    1.60    2.00
  -7   4  -9    1.90    3.40
  -7   4  -9    7.30    4.30
  -7  -4  -9    5.50    2.90
  -7  -4  -9    3.40    2.90
  -7  -4  -9   -0.10    9.80
  -7  -4  -9   10.00    4.40
   7  -4   9   -0.50    1.70
  -7   4 -10    8.90    4.40
  -7   4 -10    5.80    4.30
  -7   4 -10    3.80    3.60
  -7  -4 -10    3.30    3.00
  -7  -4 -10    7.30   12.20
   7  -4  10   -0.50    1.70
  -7  -4 -10   -1.40    3.80
  -7   4 -11   10.20    5.60
  -7   4 -11   15.70    6.00
  -7   4 -11    8.30    4.80
  -7  -4 -11   17.60   14.70
  -7  -4 -11   18.90    4.60
  -7  -4 -11    6.50    5.60
   7  -4  11    7.40    2.80
  -7   4 -12   -2.80    4.00
  -7   4 -12    7.40    5.40
   7  -4  12    4.20    2.80
  -7  -4 -12   -4.80   15.00
  -7  -4 -12    8.00    6.00
  -7  -4 -12    0.90    3.40
   7   5 -15   -1.30    5.70
   7  -5 -15   -0.30    6.10
   7   5 -14    1.20    6.60
   7   5 -14    3.60    4.50
   7   5 -14   -1.40    3.30
  -7  -5  14   -0.90    3.00
   7  -5 -14    0.60    5.90
   7   5 -13    0.90    5.10
   7   5 -13   -2.30    3.60
   7   5 -13   -1.20    3.10
   7  -5 -13   -9.30    8.30
   7  -5 -13   -4.00    5.10
  -7  -5  13    0.20    2.90
   7   5 -12    2.10    6.00
   7   5 -12    5.70    3.80
   7   5 -12    7.60    4.60
   7  -5 -12    4.20    5.00
   7  -5 -12   -3.50    8.10
  -7  -5  12    1.20    2.50
   7   5 -11    6.70    6.70
   7   5 -11    9.00    4.40
   7   5 -11    5.10    4.30
  -7  -5  11   12.30    3.80
   7  -5 -11    6.80    7.90
   7  -5 -11    8.20    5.40
   7   5 -10    0.30    3.20
   7   5 -10    1.00    4.50
   7   5 -10   -1.80    2.50
   7   5 -10    2.50    3.10
  -7  -5  10   -1.90    2.40
   7  -5 -10  -13.60    5.80
   7  -5 -10    3.50    4.30
   7   5  -9    0.90    3.00
   7   5  -9    1.50    3.10
   7   5  -9   -0.50    4.00
   7   5  -9   -0.90    2.50
  -7  -5   9    2.50    2.50
   7  -5  -9    1.30    3.70
  -7   5   8    0.10    1.70
   7   5  -8    5.30    5.10
   7   5  -8    0.10    3.00
   7   5  -8    5.90    3.20
   7   5  -8    4.10    2.90
  -7  -5   8    7.10    3.30
  -7  -5   8    2.60    2.50
   7  -5  -8    1.10    3.20
   7   5  -7    8.20    4.10
   7   5  -7   14.90    4.40
  -7   5   7   11.20    2.60
   7   5  -7   17.30    4.30
   7  -5  -7   13.30    4.20
  -7  -5   7   10.20    3.30
  -7  -5   7   16.50    4.50
  -7   5   6    2.00    1.50
   7   5  -6    1.20    2.80
   7   5  -6    2.90    2.50
   7   5  -6   -0.60    2.30
   7   5  -6   -1.00    2.20
  -7  -5   6    2.20    2.50
   7  -5  -6   -1.50    2.30
  -7  -5   6   -2.20    1.50
   7   5  -5   59.09    9.00
  -7   5   5   48.30    7.80
   7   5  -5   66.59   10.00
   7   5  -5   66.59    9.70
   7  -5  -5   70.89    7.70
  -7  -5   5   72.59    9.90
  -7  -5   5   66.59    9.10
  -7  -5   5   65.89    7.80
   7  -5  -5   54.59    9.30
  -7   5   4   67.89    8.80
   7   5  -4   61.89   10.20
   7   5  -4   75.09   10.20
   7   5  -4   75.69   10.80
  -7  -5   4   86.09   10.80
   7  -5  -4   73.19    8.70
   7  -5  -4   68.89   10.10
  -7  -5   4   72.29    8.70
  -7  -5   4   72.59   10.00
   7   5  -3   18.60    4.20
   7   5  -3   22.40    4.70
   7   5  -3   18.60    4.50
  -7   5   3   20.50    3.50
   7  -5  -3   15.70    3.80
  -7  -5   3   19.60    4.20
   7  -5  -3   21.60    3.50
  -7  -5   3   20.90    4.60
  -7  -5   3   23.60    3.40
   7   5  -2  171.78   18.80
  -7   5   2  141.09   17.70
   7   5  -2  136.69   18.70
   7   5  -2  164.88   18.80
  -7  -5   2  163.48   17.60
  -7  -5   2  142.49   18.60
   7  -5  -2  147.59   17.80
  -7  -5   2  164.28   18.50
   7  -5  -2  174.18   18.30
   7   5  -1   31.60    6.40
  -7   5   1   30.30    5.00
   7   5  -1   36.80    6.10
   7  -5  -1   28.80    5.10
  -7  -5   1   57.29    7.30
   7  -5  -1   62.59    6.40
   7  -5  -1   36.60    5.00
  -7  -5   1   42.20    5.00
  -7  -5   1   33.20    5.80
  -7   5   0   42.70    6.10
   7   5   0   47.10    7.10
   7   5   0   60.59    8.10
   7  -5   0   43.40    6.00
   7  -5   0   57.19    6.60
  -7  -5   0   44.50    7.10
  -7  -5   0   37.50    6.50
   7  -5   0   35.50    6.10
  -7  -5   0   46.30    6.30
   7   5   1   30.70    5.40
   7   5   1   31.00    5.90
  -7   5  -1   26.80    4.40
  -7  -5  -1   32.50    5.10
  -7  -5  -1   32.00    5.30
   7  -5   1   29.90    5.00
  -7  -5  -1   34.30    5.70
   7  -5   1   27.80    4.50
   7   5   2    4.40    3.00
   7   5   2    4.50    2.50
  -7   5  -2    6.60    2.00
  -7  -5  -2    7.40    2.80
  -7  -5  -2    7.80    2.80
   7  -5   2    4.80    1.90
   7  -5   2    8.20    2.40
  -7   5  -3   67.39    9.30
  -7   5  -3   62.19    9.00
   7   5   3   61.99    9.60
   7   5   3   79.69   10.90
   7  -5   3   67.39    9.60
  -7  -5  -3   66.09    9.80
   7  -5   3   68.19    8.60
  -7  -5  -3   80.79    9.80
  -7   5  -4   10.60    3.10
  -7   5  -4   17.10    3.70
   7   5   4   12.20    3.30
   7  -5   4   13.00    3.30
  -7  -5  -4   10.00    3.10
  -7  -5  -4   16.10    4.20
   7  -5   4   15.50    3.10
  -7   5  -5  166.08   20.50
  -7   5  -5  168.18   20.50
  -7   5  -5  190.28   20.60
   7   5   5  157.78   20.20
  -7  -5  -5  173.18   21.10
   7  -5   5  168.98   20.40
   7  -5   5  174.78   20.00
  -7  -5  -5  175.58   20.00
  -7   5  -6  218.78   25.30
   7   5   6  174.88   24.70
  -7   5  -6  227.18   25.60
  -7   5  -6  237.28   25.50
  -7   5  -6  186.28   26.00
   7  -5   6  213.58   24.70
  -7  -5  -6  240.58   26.20
  -7  -5  -6  209.48   24.50
   7  -5   6  259.07   25.40
  -7   5  -7    5.80    3.40
  -7   5  -7    3.60    3.20
  -7   5  -7    8.80    4.00
  -7   5  -7    4.80    3.60
   7   5   7    8.30    2.80
  -7  -5  -7    8.60    2.90
  -7  -5  -7    1.50    3.50
   7  -5   7    4.10    3.00
   7  -5   7    7.90    2.80
  -7   5  -8  194.58   23.30
  -7   5  -8  194.98   23.30
  -7   5  -8  160.68   23.00
   7   5   8  171.08   21.90
  -7   5  -8  200.58   23.20
  -7  -5  -8  224.88   22.20
   7  -5   8  184.48   22.30
   7  -5   8  165.68   21.70
  -7  -5  -8  208.78   23.90
  -7   5  -9  112.49   14.00
  -7   5  -9   85.19   12.40
  -7   5  -9   64.89   12.40
  -7  -5  -9   99.89   11.00
   7  -5   9   60.89   10.20
  -7  -5  -9   84.79   13.50
  -7   5 -10    3.50    4.20
  -7   5 -10    2.60    4.30
  -7   5 -10   -1.60    3.40
   7  -5  10   -0.30    2.00
  -7  -5 -10    2.00    2.80
  -7  -5 -10    7.60    5.50
  -7   5 -11   -0.70    4.40
  -7   5 -11    7.10    5.30
  -7   5 -11    7.60    4.40
   7  -5  11    7.90    2.50
  -7  -5 -11    0.70    4.60
  -7  -5 -11    9.50    4.00
  -7   5 -12    0.70    5.20
  -7   5 -12    3.90    4.50
  -7  -5 -12    4.30    5.90
   7  -5  12   -4.10    2.20
  -7  -5 -12    4.20    4.00
   7   6 -14   13.40    6.10
   7   6 -14    8.10    8.20
   7   6 -14   11.00    5.10
  -7  -6  14   18.50    4.90
   7  -6 -14    2.00    6.60
   7   6 -13    1.20    6.30
   7   6 -13   -0.20    3.60
   7   6 -13    5.00    4.40
   7  -6 -13   -5.20    5.50
  -7  -6  13    0.10    3.10
   7   6 -12    1.00    3.80
   7   6 -12    1.60    3.10
   7   6 -12   -0.70    5.50
   7  -6 -12   -2.70    4.90
  -7  -6  12   -5.20    2.40
   7   6 -11   -0.40    3.40
   7   6 -11    3.50    3.50
   7   6 -11    1.30    5.50
  -7  -6  11    1.00    2.80
   7  -6 -11   10.90    5.30
   7   6 -10   12.60    4.80
   7   6 -10   25.20    5.20
   7   6 -10   21.20    6.10
   7   6 -10    7.50    6.20
   7  -6 -10   20.90    6.40
  -7  -6  10   11.00    4.00
   7   6  -9   16.40    5.70
  -7   6   9   25.50    5.00
   7   6  -9   16.80    8.20
   7   6  -9   22.70    5.80
   7   6  -9   34.10    6.10
  -7  -6   9   19.50    5.40
   7  -6  -9   23.70    6.60
  -7  -6   9   16.10    4.60
   7   6  -8   -3.40    2.70
   7   6  -8    3.30    3.30
  -7   6   8    0.70    1.70
   7   6  -8   -2.20    2.80
   7  -6  -8   -1.30    3.50
  -7  -6   8    0.40    3.30
  -7  -6   8   -2.40    2.30
   7   6  -7   66.69   12.90
   7   6  -7  100.79   13.60
   7   6  -7   99.39   13.80
  -7   6   7  101.19   11.30
  -7  -6   7   86.09   12.90
  -7  -6   7  106.59   12.90
   7  -6  -7   79.99   13.20
   7   6  -6  134.79   18.40
  -7   6   6  139.59   16.20
   7   6  -6  112.79   17.40
   7   6  -6  152.38   18.90
   7   6  -6  159.38   17.30
  -7  -6   6  132.99   16.90
  -7  -6   6  141.79   17.50
   7  -6  -6  144.79   17.70
   7   6  -5   19.00    4.60
   7   6  -5   10.10    4.40
   7   6  -5   23.10    5.10
  -7   6   5   16.40    3.20
   7  -6  -5   17.50    4.60
  -7  -6   5   22.00    4.30
  -7  -6   5    5.50    3.60
   7   6  -4   56.69    7.90
  -7   6   4   32.40    4.90
   7   6  -4   36.90    6.40
   7   6  -4   22.00    5.50
  -7  -6   4   40.40    6.80
  -7  -6   4   27.30    5.50
   7  -6  -4   39.80    6.40
   7  -6  -4   25.10    4.40
   7   6  -3   -0.30    2.20
   7   6  -3    1.90    2.50
   7   6  -3    3.00    2.90
  -7   6   3    2.10    1.80
   7  -6  -3   -0.40    2.10
   7  -6  -3    0.20    1.50
  -7  -6   3    1.00    2.70
  -7  -6   3    1.40    1.60
  -7  -6   3    1.00    2.10
   7   6  -2   78.39   11.00
   7   6  -2   87.29   11.90
  -7   6   2   75.89    9.50
   7   6  -2   81.89   11.30
  -7  -6   2   56.79   10.50
  -7  -6   2   87.19   11.00
  -7  -6   2   85.29    9.30
   7  -6  -2   73.99    9.50
   7  -6  -2   72.19   10.30
   7   6  -1  160.08   19.40
  -7   6   1  159.28   18.50
   7   6  -1  161.18   19.90
   7   6  -1  167.18   19.40
   7   6  -1  127.69   18.80
  -7  -6   1  164.28   18.40
  -7  -6   1  154.88   19.50
   7  -6  -1  192.38   19.00
   7  -6  -1  153.58   18.60
  -7  -6   1  159.68   19.00
  -7   6   0    6.90    2.30
   7   6   0    6.80    3.60
   7   6   0   17.30    3.90
   7  -6   0   14.50    3.10
   7  -6   0   14.30    3.20
  -7  -6   0    7.00    2.80
   7  -6   0    8.10    2.30
  -7  -6   0    8.70    3.20
   7   6   1   22.20    5.00
  -7   6  -1   14.10    3.20
   7   6   1   19.20    4.30
   7  -6   1   15.20    3.10
   7  -6   1   15.70    3.60
  -7  -6  -1   15.20    3.90
   7   6   2    4.00    2.40
  -7   6  -2    2.30    1.90
   7   6   2   -0.40    2.80
   7  -6   2    5.00    2.30
  -7  -6  -2    3.30    2.60
   7  -6   2    3.20    1.70
  -7  -6  -2    1.20    2.40
  -7   6  -3   17.70    3.90
  -7   6  -3   18.70    3.80
   7   6   3   18.60    4.20
   7  -6   3   23.90    4.50
   7  -6   3   13.70    3.30
  -7  -6  -3   16.60    4.30
  -7  -6  -3   20.20    4.20
  -7   6  -4    2.60    2.70
  -7   6  -4   13.90    3.40
   7   6   4    9.70    3.20
  -7  -6  -4    8.30    3.00
  -7  -6  -4    9.40    3.80
   7  -6   4   10.90    3.20
   7  -6   4   10.50    2.90
  -7   6  -5  176.28   19.60
  -7   6  -5  147.69   19.20
   7   6   5  160.88   19.30
   7  -6   5  149.39   19.20
   7  -6   5  164.08   18.90
  -7  -6  -5  168.48   20.00
  -7   6  -6   58.59    9.00
  -7   6  -6   67.19    9.60
   7   6   6   45.20    8.00
  -7   6  -6   54.49    8.70
   7  -6   6   53.09    8.40
  -7  -6  -6   53.49    9.50
   7  -6   6   59.29    8.10
  -7   6  -7    4.00    3.70
   7   6   7    2.50    2.40
  -7   6  -7   -0.10    2.60
  -7   6  -7   -0.80    2.90
  -7  -6  -7   -2.00    3.00
   7  -6   7   -1.00    2.30
   7  -6   7   -1.70    1.90
   7   6   8    3.10    2.30
  -7   6  -8    5.10    3.90
  -7   6  -8    7.40    4.00
   7  -6   8    1.90    2.30
   7  -6   8    3.00    2.90
  -7  -6  -8    2.70    4.00
  -7   6  -9    9.30    4.70
  -7   6  -9    7.00    4.60
   7  -6   9    1.00    2.30
  -7  -6  -9    8.10    4.70
  -7   6 -10   20.80    6.60
  -7   6 -10   34.50    7.10
  -7  -6 -10   20.00    6.60
   7  -6  10   18.30    4.10
  -7   6 -11    7.00    5.30
  -7  -6 -11    9.00    5.50
   7  -6  11    9.00    3.00
   7   7 -13    2.40    6.30
   7   7 -13    1.20    3.60
  -7  -7  13   -2.00    2.90
   7   7 -12    7.10    4.80
   7   7 -12    2.20    6.50
  -7  -7  12   10.50    4.10
   7  -7 -12    3.50    6.40
   7   7 -11   11.90    5.80
   7   7 -11   19.50    9.20
   7  -7 -11   17.60    7.50
  -7  -7  11   29.50    5.70
   7   7 -10   24.40    5.30
   7   7 -10   12.90    8.10
   7   7 -10   11.70    5.50
  -7  -7  10   12.80    4.50
   7  -7 -10    8.90    6.00
   7   7  -9   -1.70    3.80
   7   7  -9    5.40    3.90
   7   7  -9    5.30    6.00
  -7   7   9    5.80    2.30
  -7  -7   9    3.50    3.70
   7  -7  -9    4.20    5.00
  -7  -7   9    5.10    3.50
   7   7  -8    9.00    4.00
   7   7  -8    0.60    3.50
  -7   7   8    2.40    2.00
  -7  -7   8    7.40    3.60
  -7  -7   8    9.20    4.20
   7  -7  -8    2.80    4.60
   7   7  -7   34.40    7.80
   7   7  -7   37.80    7.50
  -7   7   7   28.40    5.30
  -7  -7   7   33.70    6.40
  -7  -7   7   33.30    7.10
   7  -7  -7   37.10    8.00
  -7   7   6  119.79   13.50
   7   7  -6   99.49   16.20
   7   7  -6   98.19   15.40
   7   7  -6  145.09   15.70
   7  -7  -6   94.39   15.30
  -7  -7   6  107.89   14.80
  -7  -7   6   98.99   14.90
   7   7  -5  459.15   47.30
  -7   7   5  398.26   46.00
   7   7  -5  418.16   47.70
  -7  -7   5  392.66   47.20
  -7  -7   5  429.96   47.00
   7  -7  -5  382.76   47.10
  -7   7   4  147.19   16.00
   7   7  -4  142.99   17.20
   7   7  -4  134.79   18.40
   7  -7  -4  119.09   17.40
  -7  -7   4  125.09   17.60
   7  -7  -4  129.99   15.60
  -7  -7   4  135.09   16.80
  -7   7   3    2.90    2.00
   7   7  -3    2.80    2.80
   7   7  -3   -2.30    2.50
  -7  -7   3    5.40    3.00
  -7  -7   3   -0.80    2.90
   7  -7  -3    3.90    3.10
   7  -7  -3    4.70    2.00
   7   7  -2    2.50    3.30
   7   7  -2    0.40    2.30
  -7   7   2    3.40    2.00
  -7  -7   2   -0.80    2.20
   7  -7  -2   -0.30    2.30
   7  -7  -2    1.60    1.60
  -7  -7   2    1.60    2.90
   7   7  -1    5.40    3.80
  -7   7   1    6.60    2.30
   7   7  -1    6.00    3.20
  -7  -7   1   -1.10    2.40
  -7  -7   1    0.90    2.80
   7  -7  -1    8.10    3.00
   7  -7  -1    3.00    2.00
   7   7   0   13.00    3.00
   7   7   0    9.70    3.90
   7   7   0   19.50    4.90
  -7   7   0   12.30    3.00
  -7  -7   0    9.90    3.70
   7  -7   0    2.00    2.40
   7  -7   0    6.50    3.00
  -7   7  -1    0.30    1.70
   7   7   1   -3.70    2.20
   7   7   1    3.90    3.40
   7  -7   1    1.30    1.60
   7  -7   1    1.40    2.20
  -7  -7  -1    3.40    2.90
   7  -7   1    1.00    2.50
   7   7   2    6.50    2.90
   7   7   2   -3.00    3.00
  -7   7  -2    1.40    2.10
   7  -7   2    4.40    2.10
  -7  -7  -2    3.10    2.60
   7  -7   2   -1.20    1.80
   7   7   3   -0.90    1.90
  -7   7  -3   -0.40    1.90
  -7   7  -3   -0.70    2.20
  -7  -7  -3    0.50    2.80
   7  -7   3    1.60    2.30
   7  -7   3   -0.20    1.80
  -7  -7  -3   -3.30    2.20
  -7   7  -4   -2.40    1.90
  -7   7  -4   -2.50    1.90
   7   7   4    0.60    2.00
  -7  -7  -4    2.60    2.70
   7  -7   4   -0.50    2.40
   7  -7   4    1.50    1.90
  -7  -7  -4    2.10    3.00
   7   7   5    5.20    2.70
  -7   7  -5    2.40    2.90
  -7   7  -5   -1.10    2.20
   7  -7   5   -0.40    2.20
   7  -7   5    1.30    2.10
  -7  -7  -5    3.80    3.50
  -7   7  -6    5.50    3.50
  -7   7  -6    1.90    2.90
   7   7   6    8.10    3.00
   7  -7   6    5.00    3.00
  -7  -7  -6    1.50    3.70
   7  -7   6    4.70    2.50
  -7   7  -7    0.10    3.00
   7   7   7   -1.40    2.30
  -7   7  -7    2.40    3.10
   7  -7   7    0.30    2.00
  -7  -7  -7   -2.00    3.10
   7  -7   7    1.90    2.60
  -7   7  -8   20.40    5.50
  -7   7  -8   17.40    5.70
   7   7   8   20.30    4.50
   7  -7   8   24.30    4.50
   7  -7   8   26.70    5.40
  -7  -7  -8   19.90    6.30
  -7   7  -9   48.20    8.90
  -7   7  -9   51.59    8.80
   7  -7   9   51.49    8.00
  -7  -7  -9   44.80    9.00
   7  -7   9   34.30    6.60
  -7   7 -10   11.70    5.30
  -7  -7 -10    4.30    4.80
   7  -7  10    2.50    2.50
   7   8 -11    5.30    6.80
   7   8 -11   13.50    6.30
  -7  -8  11   15.40    4.80
   7   8 -10   15.40    6.30
   7   8 -10   16.20    9.20
  -7  -8  10   15.50    5.80
   7  -8 -10   18.90    7.90
  -7  -8  10   24.00    5.80
   7   8  -9    2.40    3.80
   7   8  -9    1.30    3.70
   7   8  -9   -2.60    4.60
  -7   8   9    1.20    2.30
  -7  -8   9   -3.00    3.40
  -7  -8   9    1.30    3.30
   7  -8  -9   -1.10    5.30
   7   8  -8    2.50    4.00
  -7   8   8   -2.30    1.80
   7   8  -8   -0.10    3.80
  -7  -8   8    5.00    4.00
   7  -8  -8    1.10    5.20
  -7  -8   8    2.40    3.20
  -7   8   7    1.10    2.20
   7   8  -7   -1.00    3.70
   7   8  -7   -4.10    3.40
   7  -8  -7    0.80    4.70
  -7  -8   7   -3.30    2.60
  -7  -8   7   -1.80    3.20
   7   8  -6   84.09   13.70
   7   8  -6  115.99   13.40
  -7   8   6   90.19   11.40
   7   8  -6   78.29   13.90
  -7  -8   6   89.89   13.50
   7  -8  -6   77.89   13.50
  -7  -8   6   76.49   12.20
   7   8  -5   43.00    7.80
  -7   8   5   34.30    5.90
   7   8  -5   38.60    8.30
   7  -8  -5   42.50    8.50
  -7  -8   5   30.70    7.40
  -7  -8   5   48.10    7.70
  -7   8   4    0.20    1.90
   7   8  -4    7.30    4.10
   7   8  -4   -0.80    3.50
   7  -8  -4    3.10    3.60
  -7  -8   4   -2.70    2.60
  -7  -8   4   -0.10    3.10
  -7   8   3   -2.20    2.00
   7   8  -3   -0.50    3.30
   7   8  -3    6.30    3.70
  -7  -8   3    5.50    3.30
   7  -8  -3   -0.60    1.90
   7  -8  -3    5.50    3.70
  -7  -8   3    3.10    3.50
   7   8  -2    1.00    3.60
   7   8  -2    4.30    3.50
  -7   8   2    5.40    2.40
  -7  -8   2    1.90    3.10
  -7  -8   2    3.20    3.80
   7  -8  -2   -0.10    2.80
   7  -8  -2    3.30    2.10
   7   8  -1   -3.60    3.10
   7   8  -1    6.30    3.50
  -7   8   1    2.60    2.30
  -7  -8   1    4.50    3.60
   7  -8  -1    2.70    2.10
   7  -8  -1    1.30    2.80
   7   8   0   34.70    7.40
   7   8   0   43.60    8.70
  -7   8   0   41.10    6.50
   7  -8   0   66.49    8.20
   7  -8   0   43.00    7.00
  -7  -8   0   35.90    7.30
   7   8   1    4.00    2.70
  -7   8  -1    3.30    2.40
   7   8   1    3.00    3.10
   7   8   1    0.60    3.20
  -7  -8  -1    7.10    3.60
   7  -8   1    2.30    2.40
   7  -8   1    9.30    3.60
   7   8   2   -1.20    2.30
  -7   8  -2   -3.00    1.90
   7   8   2    5.00    3.20
   7  -8   2   -1.70    2.20
   7  -8   2   -3.50    2.80
   7  -8   2    0.00    1.90
  -7  -8  -2    2.80    3.00
  -7   8  -3   33.60    6.40
   7   8   3   26.60    6.20
  -7   8  -3   30.80    5.80
   7  -8   3   37.20    5.80
  -7  -8  -3   53.39    7.10
   7  -8   3   24.40    5.80
   7   8   4   40.00    6.70
  -7   8  -4   34.40    5.90
   7  -8   4   21.80    5.30
   7  -8   4   27.90    5.20
   7   8   5  103.29   14.10
  -7   8  -5   95.39   13.80
   7  -8   5  108.59   13.00
   7  -8   5   97.79   13.90
  -7  -8  -5  104.99   14.40
  -7   8  -6    3.00    3.30
  -7   8  -6    9.90    3.70
   7   8   6    8.20    3.30
  -7  -8  -6    3.50    3.70
   7  -8   6   -0.60    2.20
   7  -8   6    2.00    2.50
   7   8   7    0.60    2.70
  -7   8  -7    4.30    3.70
  -7   8  -7   -2.30    3.30
   7  -8   7    5.10    3.10
  -7  -8  -7   -3.20    3.60
   7  -8   7    5.00    2.80
  -7   8  -8    8.00    4.70
   7  -8   8    5.80    3.10
   7  -8   8   15.10    4.60
  -7  -8  -8   11.70    5.20
  -7   8  -9   16.40    6.00
  -7  -8  -9   21.10    6.60
   7  -8   9   12.00    3.70
   7  -8   9   16.20    4.60
   7   9 -10   12.00    5.90
   7   9 -10   -1.70    6.70
  -7  -9  10    4.80    4.30
  -7  -9  10   -3.40    2.90
   7   9  -9    1.80    4.70
   7   9  -9    1.00    3.70
  -7   9   9   -0.70    2.40
   7   9  -9    0.30    6.50
  -7  -9   9    6.60    4.00
  -7  -9   9    4.70    4.60
   7   9  -8    3.90    4.40
  -7   9   8   -0.50    2.30
   7   9  -8    2.40    4.50
  -7  -9   8   -0.10    3.90
  -7  -9   8    0.10    3.20
   7   9  -7   -1.50    4.40
   7   9  -7   -0.70    4.20
  -7   9   7    4.20    2.60
  -7  -9   7    4.00    3.80
   7  -9  -7   -1.20    5.20
  -7  -9   7    4.90    3.90
   7   9  -6   40.30    8.30
   7   9  -6   25.80    7.50
   7   9  -6   42.10    7.80
  -7   9   6   28.80    5.20
  -7  -9   6   23.50    6.60
  -7  -9   6   34.70    6.80
   7  -9  -6   20.90    7.80
  -7   9   5   28.30    4.90
   7   9  -5   24.80    6.40
   7   9  -5   35.20    7.90
   7  -9  -5   23.70    6.90
  -7  -9   5   21.60    5.90
  -7  -9   5   18.60    6.10
  -7   9   4    2.70    2.30
   7   9  -4    6.70    4.20
   7   9  -4    3.70    4.20
  -7  -9   4   -0.90    3.30
  -7  -9   4    1.50    3.40
   7  -9  -4    2.00    4.50
  -7   9   3    1.70    2.20
   7   9  -3    3.80    4.40
   7   9  -3    1.50    3.40
   7  -9  -3   -5.60    3.40
   7  -9  -3    1.50    2.70
  -7  -9   3    8.20    4.30
  -7  -9   3    6.90    4.10
   7   9  -2   -2.90    3.20
  -7   9   2    0.10    2.00
   7   9  -2   -2.00    3.30
   7  -9  -2    1.60    4.00
   7  -9  -2    0.20    2.00
  -7  -9   2   -6.30    2.70
  -7   9   1   54.39    8.90
   7   9  -1   72.49   11.00
   7   9  -1   74.49   12.00
   7  -9  -1   67.79    9.30
  -7  -9   1   61.29   10.40
   7  -9  -1   75.69   10.90
  -7   9   0    0.00    2.20
   7   9   0    3.00    3.70
   7   9   0   -1.30    3.00
   7  -9   0   -2.70    1.90
   7  -9   0    2.40    3.20
  -7  -9   0   -3.90    2.60
   7   9   1    1.00    3.20
   7   9   1    0.80    3.30
  -7   9  -1   -0.50    2.20
   7   9   1    2.90    4.00
   7  -9   1    0.00    2.50
  -7  -9  -1    2.10    3.10
   7  -9   1    1.40    3.00
  -7   9  -2   -0.90    2.40
   7   9   2    5.00    3.10
   7   9   2    6.00    3.40
  -7  -9  -2    2.20    3.00
   7  -9   2    1.50    3.10
   7  -9   2    1.90    3.20
   7   9   3    2.60    3.10
   7   9   3    5.60    3.40
  -7   9  -3    0.20    2.60
   7  -9   3    5.00    3.00
   7  -9   3    2.00    3.60
   7  -9   3    2.50    2.50
   7   9   4  188.78   20.00
   7   9   4  149.49   20.10
  -7   9  -4  156.08   19.90
   7  -9   4  174.78   19.50
   7  -9   4  143.89   19.80
   7   9   5   12.40    4.10
  -7   9  -5    9.80    4.10
  -7   9  -5   18.00    4.50
   7   9   5    3.00    3.30
   7  -9   5    9.00    3.80
   7  -9   5    8.90    3.20
   7   9   6   -0.30    3.00
  -7   9  -6    1.40    3.70
  -7   9  -6   -1.50    3.20
   7   9   6    5.40    3.20
   7  -9   6    2.00    2.50
   7  -9   6   -0.60    2.90
  -7   9  -7   -1.50    3.70
   7   9   7   -3.60    2.70
   7   9   7    2.90    3.40
   7  -9   7   -1.70    2.20
   7  -9   7   -5.30    2.70
  -7  -9  -7    6.90    5.90
  -7  10   7    1.30    2.60
   7  10  -7   -1.50    4.80
   7  10  -7    4.10    5.50
  -7 -10   7    0.60    3.50
  -7 -10   7    3.80    4.30
   7  10  -6   83.59   14.30
   7  10  -6   42.80   11.40
   7  10  -6   63.79   11.20
  -7  10   6   65.39    8.80
  -7 -10   6   63.29   10.30
  -7 -10   6   57.29   10.60
  -7  10   5    1.60    2.60
   7  10  -5    5.20    4.80
   7  10  -5    0.40    4.70
   7  10  -5    4.50    4.40
  -7 -10   5    0.10    3.80
  -7 -10   5    6.10    4.20
  -7  10   4   -0.30    2.40
   7  10  -4    1.20    4.60
   7  10  -4    0.30    3.80
  -7 -10   4    5.40    4.10
   7 -10  -4   -2.70    6.00
   7  10  -3    0.90    3.90
   7  10  -3    1.60    4.20
  -7  10   3    1.80    3.10
  -7 -10   3    5.70    4.30
   7 -10  -3    3.10    5.50
  -7  10   2    3.20    2.50
   7  10  -2   -1.40    4.30
   7  10  -2    5.50    4.00
   7 -10  -2   -3.00    4.50
   7 -10  -2    2.20    3.20
  -7 -10   2    2.50    4.00
   7  10  -1   46.80    8.40
  -7  10   1   34.50    6.50
   7  10  -1   55.99   10.30
   7 -10  -1   44.30    8.20
  -7 -10   1   40.40    7.90
   7 -10  -1   33.90    6.30
  -7  10   0   -0.50    2.50
   7  10   0   -3.40    3.40
   7  10   0   -1.60    4.40
   7 -10   0    2.50    4.20
  -7 -10   0   -2.80    3.00
   7 -10   0    0.70    2.70
  -7  10  -1    2.40    2.90
   7  10   1   -1.90    3.50
   7 -10   1    3.30    3.20
   7 -10   1    0.90    2.50
  -7 -10  -1    1.40    3.30
  -7  10  -2    2.00    2.90
   7  10   2   -1.60    3.40
   7 -10   2    0.30    2.40
   7 -10   2    1.60    3.50
   7  10   3    1.20    3.30
   7  10   3    0.30    3.40
  -7  10  -3    2.60    3.10
   7 -10   3    3.00    3.30
   7 -10   3    1.10    3.10
   7  10   4    0.70    3.10
  -7  10  -4    1.30    3.40
   7  10   4   -2.30    3.10
   7 -10   4    1.10    3.40
   7 -10   4   -4.80    2.60
   7  10   5    6.50    3.70
  -7  10  -5    4.70    3.90
   7  10   5    2.40    3.40
   7 -10   5    5.50    4.20
   7 -10   5    6.90    3.30
   7 -10   5    4.20    3.60
   7  11  -3   -1.60    5.20
   7  11  -3    6.80    5.20
  -7  11   3   -2.00    2.70
  -7 -11   3    1.40    3.90
   7  11  -2   14.60    6.70
   7  11  -2   10.00    5.00
  -7  11   2   12.00    3.80
  -7 -11   2    4.20    4.50
   7  11  -1   74.39   11.60
   7  11  -1   88.69   13.50
  -7  11   1   76.79   10.20
  -7 -11   1   59.99   10.50
   7 -11  -1   61.59   10.00
  -7  11   0    7.90    4.00
   7  11   0   11.00    5.30
   7 -11   0   10.90    6.50
  -7 -11   0    9.60    4.70
   7 -11   0   10.50    3.70
   8   0 -16    9.10    7.00
   8   0 -16   -2.50    6.60
   8   0 -16    2.10    6.50
   8   0 -15   -0.40    4.80
   8   0 -15    1.80    5.10
   8   0 -15   -2.80    5.50
   8   0 -14  484.95   50.39
   8   0 -14  388.96   50.99
   8   0 -14  428.06   49.80
   8   0 -13   -2.30    3.50
   8   0 -13   -2.30    4.00
   8   0 -13    4.70    4.50
   8   0 -12   16.00    5.80
   8   0 -12   20.90    7.30
   8   0 -12   35.90    8.10
  -8   0  11   -1.90    2.30
   8   0 -11    1.50    3.40
   8   0 -11    2.60    3.70
   8   0 -11    4.50    3.50
  -8   0  10   22.60    3.90
   8   0 -10   21.40    6.50
   8   0 -10   34.80    7.10
   8   0 -10   15.00    5.00
   8   0  -9   -0.40    2.40
   8   0  -9    3.30    3.10
   8   0  -9   -0.30    2.60
  -8   0   9    0.40    1.40
   8   0  -8   32.80    7.10
   8   0  -8   29.10    5.80
   8   0  -8   31.10    6.00
  -8   0   8   22.40    4.00
   8   0  -7    0.40    1.40
   8   0  -7   -0.90    1.90
  -8   0   7    0.30    1.00
   8   0  -7   -1.20    2.20
   8   0  -7   -1.20    2.20
   8   0  -6    2.70    2.50
   8   0  -6    4.20    1.80
  -8   0   6    6.50    1.70
   8   0  -6    4.10    2.40
   8   0  -5    2.90    2.10
   8   0  -5    0.50    1.80
   8   0  -5    0.00    1.30
  -8   0   5   -0.60    1.00
  -8   0   4  275.17   31.20
   8   0  -4  287.47   32.10
   8   0  -4  299.57   31.90
   8   0  -4  302.87   31.60
   8   0  -4  246.48   31.80
  -8   0   3    1.50    1.00
   8   0  -3    1.70    1.50
   8   0  -3    0.90    1.30
   8   0  -3    0.00    1.10
   8   0  -2   85.09    9.90
  -8   0   2   75.49    9.40
   8   0  -2   81.09    9.80
  -8   0   2   85.79    9.40
   8   0  -2   76.99   10.00
  -8   0   1    0.60    1.20
   8   0  -1    0.40    1.20
   8   0  -1    0.30    1.00
  -8   0   1    0.10    0.80
   8   0  -1   -2.40    0.70
  -8   0   1    0.00    0.60
  -8   0   1   -0.50    1.10
   8   0   0  117.89   14.20
   8   0   0  122.09   14.50
   8   0   0  132.29   14.00
  -8   0   0  139.39   13.80
  -8   0   0  104.09   13.80
  -8   0   0  125.79   14.30
  -8   0   0  117.49   14.30
  -8   0  -1   -0.90    1.30
   8   0   1   -0.80    0.60
   8   0   1   -0.20    0.90
   8   0   1   -1.20    0.80
  -8   0  -1   -0.20    1.00
  -8   0  -1    0.20    0.60
  -8   0  -1    1.20    1.50
  -8   0  -2    5.70    2.20
  -8   0  -2    3.40    1.60
  -8   0  -2    4.10    1.30
   8   0   2    4.30    1.60
  -8   0  -2    7.70    2.40
   8   0   2    3.20    1.70
   8   0   3    0.40    1.20
  -8   0  -3   -1.10    2.00
  -8   0  -3    0.10    1.50
  -8   0  -3   -0.70    1.20
   8   0   3    0.00    1.40
  -8   0  -3   -2.00    1.50
  -8   0  -4   48.50    7.20
   8   0   4   46.70    6.10
  -8   0  -4   37.90    5.20
  -8   0  -4   28.50    5.70
  -8   0  -4   33.70    5.50
   8   0   4   27.60    4.90
  -8   0  -5   -1.70    2.40
  -8   0  -5   -0.40    1.90
   8   0   5   -0.80    1.40
   8   0   5    0.60    1.30
  -8   0  -5    0.70    2.10
  -8   0  -5   -3.90    2.10
   8   0   6  151.98   19.00
  -8   0  -6  164.98   19.50
  -8   0  -6  180.38   20.60
  -8   0  -6  173.58   19.90
  -8   0  -6  168.78   20.70
  -8   0  -7   -5.60    2.80
  -8   0  -7    6.00    3.40
  -8   0  -7   -1.50    2.30
   8   0   7    0.60    1.50
  -8   0  -8    0.60    3.30
  -8   0  -8   -2.30    3.80
  -8   0  -8    8.70    4.20
   8   0   8    2.60    1.80
  -8   0  -9   -1.90    3.30
  -8   0  -9   -5.20    3.60
   8   0   9    1.60    1.80
  -8   0  -9    7.60    4.10
  -8   0 -10  413.96   42.90
  -8   0 -10  340.17   43.40
   8   0  10  352.76   41.40
  -8   0 -10  342.47   43.80
  -8   0 -11   12.10    6.00
   8   0  11   -0.40    2.30
  -8   0 -11   -7.20    4.10
  -8   0 -12    4.70    5.90
  -8   0 -12   -1.10    4.90
  -8   0 -13   -3.40    5.20
  -8   0 -13    3.40    5.60
   8   1 -16    3.60    6.50
   8   1 -16   -2.20    5.90
   8   1 -16    2.10    6.20
   8  -1 -16   -8.70    5.70
   8  -1 -16    4.70    6.30
   8  -1 -16  -11.30    5.80
   8   1 -15   39.90    8.60
   8   1 -15   13.10    7.00
   8   1 -15   16.00    7.70
   8  -1 -15   21.40    7.70
   8  -1 -15   19.60    8.00
   8  -1 -15    7.30    7.30
   8   1 -14   19.50    8.30
   8   1 -14   22.30    7.60
   8   1 -14   19.30    6.50
   8  -1 -14   26.40    7.60
   8  -1 -14   13.20    7.60
   8  -1 -14   42.00    9.10
   8   1 -13   28.50    7.60
   8   1 -13   23.50    7.50
   8   1 -13   25.80    9.10
   8  -1 -13   41.30    9.90
   8  -1 -13   45.30    9.30
   8  -1 -13   18.00    7.10
   8   1 -12   -3.10    3.20
   8   1 -12    3.60    4.50
   8   1 -12    6.70    4.60
   8  -1 -12    3.90    3.70
   8  -1 -12    7.00    4.60
   8  -1 -12   -4.10    3.60
   8   1 -11   -1.80    3.00
   8   1 -11    0.50    3.30
   8   1 -11    4.50    4.10
   8  -1 -11    1.90    3.20
   8  -1 -11   -2.80    2.80
   8  -1 -11    0.30    3.50
  -8  -1  11   -0.50    1.80
   8   1 -10   80.49   11.60
   8   1 -10   48.80   12.20
  -8   1  10   89.49    9.10
   8   1 -10   66.59   11.70
   8  -1 -10   61.29   11.30
  -8  -1  10   80.09    9.30
   8  -1 -10   81.19   12.00
   8  -1 -10   64.09   12.10
   8   1  -9  133.39   17.70
   8   1  -9  134.89   16.50
   8   1  -9  110.89   17.60
  -8  -1   9  134.19   15.10
   8  -1  -9  154.98   17.00
   8  -1  -9  102.59   16.70
   8  -1  -9  129.59   16.90
  -8   1   8    2.30    1.70
   8   1  -8    2.50    1.70
   8   1  -8   -0.20    2.70
   8   1  -8    3.60    2.90
   8   1  -8   -0.90    2.40
   8  -1  -8    0.40    2.30
   8  -1  -8    3.00    3.20
  -8  -1   8    0.20    1.40
  -8  -1   8   -1.90    1.20
   8  -1  -8   -0.60    2.50
   8   1  -7   22.20    3.90
  -8   1   7   24.60    3.60
   8   1  -7   15.90    5.20
   8   1  -7   18.90    5.10
   8   1  -7   20.00    4.70
   8  -1  -7   17.10    4.70
  -8  -1   7   19.00    3.50
   8  -1  -7   38.30    6.30
   8  -1  -7   26.30    3.50
  -8  -1   7   18.80    3.30
   8   1  -6   11.80    3.60
   8   1  -6    8.60    3.60
  -8   1   6    8.70    2.00
   8   1  -6    6.40    2.90
   8   1  -6    6.30    2.30
   8  -1  -6    8.30    2.30
  -8  -1   6    9.50    2.00
   8  -1  -6    7.70    3.10
   8  -1  -6    5.90    2.90
   8   1  -5   82.29    9.80
   8   1  -5   65.89    9.50
  -8   1   5   69.99    8.30
   8   1  -5   57.99    9.70
   8   1  -5   74.19    8.90
   8   1  -5   57.19    9.50
   8  -1  -5   73.49   10.00
   8  -1  -5   68.09    9.80
  -8  -1   5   71.79    8.30
   8  -1  -5   75.99    8.70
   8   1  -4  682.33   81.29
   8   1  -4  796.62   80.99
   8   1  -4  723.43   81.09
   8   1  -4  632.64   80.89
  -8   1   4  711.63   80.49
   8  -1  -4  839.82   81.19
   8  -1  -4  758.72   81.29
  -8  -1   4  756.12   80.49
   8  -1  -4  787.02   80.99
   8  -1  -4  665.43   81.09
   8   1  -3   19.60    3.60
   8   1  -3   14.20    3.20
  -8   1   3   19.10    2.80
  -8   1   3   15.90    2.70
   8   1  -3   15.40    3.20
   8  -1  -3   16.90    3.40
   8  -1  -3   14.50    3.40
   8  -1  -3   22.80    3.20
   8  -1  -3   17.90    3.20
  -8  -1   3   15.00    2.60
  -8   1   2   42.90    5.00
  -8   1   2   34.80    4.70
   8   1  -2   36.90    5.40
   8   1  -2   28.70    5.00
   8   1  -2   27.10    5.20
   8  -1  -2   41.10    5.40
   8  -1  -2   36.40    5.00
  -8  -1   2   42.70    4.60
  -8  -1   2   38.60    5.00
   8  -1  -2   30.70    5.10
  -8   1   1   -0.50    0.80
   8   1  -1    0.20    1.10
  -8   1   1    1.90    1.00
   8   1  -1    2.20    1.60
  -8   1   1    0.40    1.30
   8   1  -1    0.00    1.00
   8  -1  -1   -0.20    1.00
   8  -1  -1    0.80    1.20
   8  -1  -1    0.40    0.90
  -8  -1   1   -0.10    1.30
  -8  -1   1    0.70    0.70
  -8  -1   1   -0.50    0.90
   8   1   0  378.36   44.30
  -8   1   0  405.36   44.30
  -8   1   0  407.86   44.00
   8   1   0  390.06   44.60
  -8   1   0  404.86   43.80
  -8  -1   0  366.66   43.70
  -8  -1   0  418.36   43.70
   8  -1   0  392.56   44.40
  -8  -1   0  401.56   44.40
   8  -1   0  417.96   44.10
  -8  -1   0  366.16   44.20
   8  -1   0  428.66   44.00
   8   1   1   30.00    4.90
  -8   1  -1   38.80    4.40
  -8   1  -1   31.10    5.20
  -8   1  -1   37.50    5.10
  -8   1  -1   33.80    5.20
   8   1   1   27.40    5.00
  -8  -1  -1   29.60    5.20
   8  -1   1   23.30    4.40
   8  -1   1   37.80    5.30
  -8  -1  -1   34.20    4.20
   8  -1   1   49.99    4.80
  -8  -1  -1   38.00    4.60
  -8  -1  -1   41.00    5.80
  -8   1  -2   20.00    3.70
   8   1   2   15.70    3.40
   8   1   2   16.70    3.10
  -8   1  -2   20.60    3.60
  -8   1  -2   16.80    3.70
   8  -1   2   15.70    3.20
  -8  -1  -2   14.70    2.90
  -8  -1  -2   23.90    2.90
  -8  -1  -2   19.90    4.00
  -8  -1  -2   18.70    3.70
   8  -1   2   14.90    2.80
   8   1   3    0.80    1.60
  -8   1  -3    1.90    1.70
  -8   1  -3   -1.20    1.60
  -8   1  -3    0.30    1.80
  -8   1  -3    0.70    1.80
   8  -1   3    0.00    1.20
  -8  -1  -3    3.40    1.70
   8  -1   3    1.10    1.40
  -8  -1  -3    3.70    1.40
  -8  -1  -3    4.50    2.20
  -8  -1  -3    1.30    1.90
  -8   1  -4   13.90    3.60
   8   1   4   15.20    3.40
  -8   1  -4   16.80    4.40
  -8   1  -4   15.00    3.40
   8   1   4   19.60    3.40
  -8   1  -4   17.50    3.90
  -8  -1  -4   13.90    2.90
   8  -1   4   18.60    3.70
  -8  -1  -4   17.40    3.50
  -8  -1  -4   25.50    5.00
   8  -1   4   19.40    3.30
   8   1   5   50.49    8.90
  -8   1  -5   49.50    8.50
  -8   1  -5   57.89    7.60
  -8   1  -5   52.99    8.30
   8   1   5   55.49    7.20
  -8   1  -5   50.09    7.60
   8  -1   5   40.00    6.50
   8  -1   5   45.50    7.20
  -8  -1  -5   56.99    8.90
  -8  -1  -5   47.50    6.80
  -8  -1  -5   49.30    7.30
  -8   1  -6   65.59   10.30
  -8   1  -6   66.99   10.00
  -8   1  -6   63.49    9.50
   8   1   6   58.39    8.80
  -8   1  -6   71.99   11.10
  -8  -1  -6   67.49   10.90
  -8  -1  -6   56.09    9.30
   8  -1   6   78.29    9.70
  -8  -1  -6   78.39    8.90
   8  -1   6   58.99    8.60
  -8   1  -7    5.50    3.60
  -8   1  -7    5.10    3.80
   8   1   7    1.00    1.80
  -8   1  -7    6.00    3.60
  -8   1  -7    6.20    3.40
  -8  -1  -7    6.80    3.20
  -8  -1  -7    1.40    2.60
   8  -1   7    7.50    2.30
  -8  -1  -7    6.40    4.00
  -8   1  -8    5.10    3.60
  -8   1  -8    3.50    4.30
  -8   1  -8   24.70    6.30
  -8   1  -8   10.70    4.50
   8   1   8   15.30    3.40
  -8  -1  -8   13.40    5.20
  -8  -1  -8   13.00    4.20
  -8  -1  -8   27.80    5.30
   8  -1   8   13.50    3.10
   8   1   9    2.00    2.10
  -8   1  -9   -5.20    3.40
  -8   1  -9    2.10    4.10
  -8   1  -9    2.40    3.30
  -8  -1  -9   -0.80    3.60
   8  -1   9    3.10    1.80
  -8  -1  -9   -2.50    3.10
  -8  -1  -9   -4.80    3.70
  -8   1 -10   34.70    8.20
  -8   1 -10   13.20    5.70
  -8   1 -10   14.00    8.20
   8   1  10   14.70    3.90
  -8  -1 -10   14.60    8.30
  -8  -1 -10   14.40    6.60
  -8  -1 -10   24.00    6.00
   8  -1  10   18.50    3.80
   8   1  11  103.69   14.50
  -8   1 -11  154.58   19.80
  -8   1 -11  101.29   16.30
  -8  -1 -11  169.18   17.00
  -8  -1 -11  134.99   18.90
   8  -1  11  109.09   14.50
  -8   1 -12   10.00    5.30
  -8   1 -12    4.10    5.30
  -8  -1 -12   19.10    7.00
  -8  -1 -12    9.40    5.40
   8  -1  12    8.30    3.00
  -8   1 -13   -5.90    5.90
  -8   1 -13    5.20    5.70
  -8  -1 -13    5.10    5.30
  -8  -1 -13   -0.20    5.30
   8   2 -16   -1.40    5.70
   8   2 -16   -3.70    5.90
   8   2 -16    0.20    5.60
   8  -2 -16   -1.20    5.80
   8  -2 -16  -13.90   10.40
   8  -2 -16    2.60    6.50
   8   2 -15   -2.50    4.30
   8   2 -15    0.10    5.10
   8   2 -15    0.50    4.90
   8  -2 -15   -6.20    6.50
   8  -2 -15    1.80    6.00
   8  -2 -15   -4.30    4.70
   8   2 -14   13.00    5.90
   8   2 -14   19.80    7.10
   8   2 -14   18.20    8.50
   8  -2 -14   23.10    7.50
   8  -2 -14   22.10    7.20
   8  -2 -14   23.60    8.70
   8   2 -13   -0.60    3.80
   8   2 -13    2.80    4.70
   8   2 -13    2.70    4.90
   8  -2 -13   -3.80    5.20
   8  -2 -13    8.60    5.30
   8  -2 -13    4.20    4.70
   8   2 -12    1.60    4.30
   8   2 -12    1.20    3.90
   8   2 -12   -0.30    3.20
   8  -2 -12    2.00    4.20
  -8  -2  12   -0.90    2.00
   8  -2 -12    0.50    4.10
   8  -2 -12   -2.20    4.40
   8   2 -11    2.50    4.10
   8   2 -11   -2.00    3.00
   8   2 -11    5.30    4.40
   8  -2 -11    0.60    3.40
   8  -2 -11   -0.90    3.90
  -8  -2  11    4.10    2.20
   8  -2 -11   -0.30    3.80
   8   2 -10    5.90    3.80
   8   2 -10    2.60    3.90
   8   2 -10    2.40    3.00
   8  -2 -10   -2.80    3.00
  -8  -2  10    1.00    1.90
   8  -2 -10   -1.20    3.00
   8  -2 -10    0.00    3.30
   8   2  -9    9.60    4.80
   8   2  -9   16.30    6.50
   8   2  -9   26.40    4.30
   8   2  -9   19.60    5.30
   8  -2  -9   20.00    5.60
  -8  -2   9   24.10    4.30
   8  -2  -9   18.70    6.90
   8  -2  -9   21.30    5.40
   8   2  -8    5.20    2.40
   8   2  -8    8.70    3.50
   8   2  -8   10.50    4.10
   8   2  -8    6.80    4.40
   8  -2  -8    7.80    3.70
   8  -2  -8   13.20    4.00
  -8  -2   8    8.60    2.60
   8   2  -7    2.00    2.00
  -8   2   7    0.90    1.50
   8   2  -7    0.40    2.00
   8   2  -7   -1.40    2.00
   8   2  -7   -0.10    2.60
   8   2  -7    0.90    3.00
   8  -2  -7    1.20    2.70
  -8  -2   7    5.40    2.00
   8  -2  -7   -0.10    2.60
  -8  -2   7    1.80    1.30
   8   2  -6    0.70    2.50
  -8   2   6    6.20    1.80
   8   2  -6    1.70    2.20
   8   2  -6    3.90    2.10
   8   2  -6    4.20    3.20
   8   2  -6    7.50    2.50
  -8  -2   6    3.90    2.10
   8  -2  -6    3.20    2.70
  -8  -2   6    6.40    1.60
   8  -2  -6    4.70    1.70
  -8  -2   6    4.00    1.80
   8  -2  -6    0.80    2.20
   8   2  -5   66.09   10.00
   8   2  -5   52.89    9.30
  -8   2   5   71.59    8.60
   8   2  -5   77.99    9.10
   8   2  -5   70.19    9.00
   8   2  -5   83.09   11.00
   8   2  -5   82.39   10.00
  -8  -2   5   62.79    9.30
  -8  -2   5   64.39    8.40
   8  -2  -5   72.79   10.20
  -8  -2   5   70.19    8.80
   8  -2  -5   87.29   10.40
   8  -2  -5   69.19    8.80
  -8   2   4  436.76   48.10
  -8   2   4  499.25   47.90
   8   2  -4  447.76   48.90
   8   2  -4  393.06   48.40
   8   2  -4  384.16   48.80
   8   2  -4  471.95   48.60
  -8  -2   4  404.06   48.30
   8  -2  -4  392.16   48.60
  -8  -2   4  452.75   48.00
   8  -2  -4  458.15   48.30
   8  -2  -4  423.06   48.70
   8   2  -3  291.47   33.00
   8   2  -3  307.57   32.70
  -8   2   3  283.37   32.10
   8   2  -3  281.57   32.90
  -8   2   3  297.87   32.00
   8  -2  -3  276.77   32.70
   8  -2  -3  280.97   32.60
   8  -2  -3  294.17   32.20
  -8  -2   3  285.47   32.00
   8  -2  -3  291.27   32.40
   8   2  -2   80.49   10.00
   8   2  -2   70.89    8.80
  -8   2   2   70.69    8.30
  -8   2   2   74.99    8.20
   8  -2  -2   65.19    8.30
  -8  -2   2   73.59    8.20
   8  -2  -2   65.19    8.50
   8  -2  -2   61.59    9.00
  -8   2   1   49.50    5.70
   8   2  -1   41.30    6.20
  -8   2   1   47.50    5.90
   8   2  -1   39.40    6.60
  -8  -2   1   49.00    6.10
  -8  -2   1   45.20    5.30
   8  -2  -1   41.20    5.80
   8  -2  -1   36.20    6.00
   8  -2  -1   42.80    5.50
   8   2   0  932.61   99.49
   8   2   0  869.41   99.69
  -8   2   0  904.51   99.19
  -8   2   0  953.40   99.09
   8  -2   0  837.72   99.19
   8  -2   0  882.21   98.99
   8  -2   0 1054.79   99.09
  -8  -2   0  871.31   99.19
  -8  -2   0  916.41   98.59
  -8  -2   0  818.52   98.59
  -8   2  -1  575.54   62.59
   8   2   1  556.94   62.59
  -8   2  -1  627.54   62.49
   8   2   1  565.44   62.89
  -8  -2  -1  520.45   61.89
  -8  -2  -1  526.65   62.59
   8  -2   1  572.44   62.29
   8  -2   1  594.34   62.59
  -8   2  -2  147.09   16.80
   8   2   2  131.99   16.70
  -8   2  -2  147.29   16.90
   8   2   2  150.68   17.20
  -8  -2  -2  139.79   17.10
  -8  -2  -2  144.39   16.30
   8  -2   2  155.58   16.60
  -8  -2  -2  141.99   16.20
   8  -2   2  135.39   16.80
  -8   2  -3    6.90    2.70
  -8   2  -3    8.10    2.90
   8   2   3    5.20    2.30
   8   2   3    3.80    1.90
  -8   2  -3    4.20    2.50
   8  -2   3   11.60    2.30
   8  -2   3    6.70    2.60
  -8  -2  -3    8.80    2.10
  -8  -2  -3    2.80    2.60
  -8  -2  -3    8.90    1.90
  -8   2  -4    9.10    3.00
   8   2   4    9.00    2.80
  -8   2  -4    9.40    2.90
  -8   2  -4    4.90    2.70
   8   2   4    7.00    2.30
   8  -2   4    4.90    2.00
  -8  -2  -4   13.10    3.80
   8  -2   4   10.20    3.00
  -8  -2  -4    8.70    2.40
   8   2   5   15.60    3.60
  -8   2  -5    8.20    3.80
  -8   2  -5   21.60    5.00
  -8   2  -5   17.00    4.00
  -8   2  -5   19.30    4.60
   8  -2   5   21.90    3.80
   8  -2   5   17.70    4.10
  -8  -2  -5   20.30    4.00
  -8  -2  -5   24.50    3.60
  -8  -2  -5   30.00    9.60
  -8  -2  -5   14.90    4.60
  -8  -2  -5   16.90    3.70
  -8   2  -6   79.99   11.20
   8   2   6   82.49   11.10
  -8   2  -6   93.29   12.40
  -8   2  -6   83.69   12.70
  -8   2  -6   79.49   12.20
   8  -2   6   75.49   11.10
  -8  -2  -6   76.19   11.20
   8  -2   6   84.79   10.50
  -8  -2  -6   84.09   10.60
  -8  -2  -6   79.39   12.40
  -8  -2  -6   89.39   10.70
  -8  -2  -6  117.19   16.90
  -8   2  -7   25.80    6.20
  -8   2  -7   33.20    6.90
   8   2   7   23.50    4.70
  -8   2  -7   24.40    5.60
  -8   2  -7   23.60    5.80
  -8  -2  -7   31.80    5.30
  -8  -2  -7   29.40    6.80
  -8  -2  -7   41.80   14.40
   8  -2   7   26.00    4.70
  -8  -2  -7   23.70    5.10
  -8   2  -8    1.00    3.30
  -8   2  -8   -3.90    2.70
  -8   2  -8    1.70    3.50
  -8   2  -8   10.30    4.80
   8   2   8    4.20    2.10
   8  -2   8   -2.30    1.90
  -8  -2  -8   -1.00    2.90
  -8  -2  -8    5.70    3.20
  -8  -2  -8    0.10    3.70
  -8   2  -9    6.10    4.40
  -8   2  -9    2.70    4.20
   8   2   9   10.90    3.00
  -8   2  -9    7.90    4.50
  -8   2  -9   15.80    5.50
   8  -2   9    8.10    2.90
  -8  -2  -9   13.00    4.50
  -8  -2  -9   11.20    5.80
  -8  -2  -9    6.20    3.80
  -8   2 -10   18.00    6.40
  -8   2 -10   21.60    6.90
  -8   2 -10   25.20    6.50
   8   2  10   15.30    4.10
   8  -2  10   21.90    4.20
  -8  -2 -10   31.30    7.90
  -8  -2 -10   31.90    6.40
  -8   2 -11   -1.10    4.40
  -8   2 -11   -3.30    4.10
  -8  -2 -11  -10.30    3.70
   8  -2  11    3.30    2.00
  -8  -2 -11   -3.10    4.90
  -8   2 -12    3.20    5.30
  -8   2 -12   -3.60    4.50
   8  -2  12    0.10    2.10
  -8  -2 -12   -5.30    4.90
  -8  -2 -12    0.80    4.20
  -8   2 -13   -9.00    4.70
  -8   2 -13    0.40    5.30
  -8  -2 -13   -6.20    5.20
  -8  -2 -13    6.20    4.70
   8  -2  13    0.60    3.80
   8   3 -15    9.70    7.10
   8   3 -15    8.20    6.20
   8   3 -15   12.80    6.00
   8  -3 -15    8.90    6.80
   8   3 -14   -1.40    4.20
   8   3 -14    2.90    4.60
   8   3 -14   -0.90    4.80
   8  -3 -14   -0.20    4.60
   8  -3 -14    4.90    5.60
   8   3 -13   16.60    6.40
   8   3 -13   19.00    8.70
   8   3 -13   25.80    7.10
  -8  -3  13   25.60    5.20
   8  -3 -13   40.10   14.80
   8  -3 -13   35.70    8.50
   8  -3 -13   30.40    8.10
   8   3 -12    2.30    5.00
   8   3 -12    2.70    4.50
   8   3 -12    8.00    4.40
  -8  -3  12    2.20    2.70
   8  -3 -12    1.70    4.00
   8  -3 -12   -1.40    7.10
   8  -3 -12    8.00    5.40
   8   3 -11    9.70    6.10
   8   3 -11   24.20    6.30
   8   3 -11   10.40    3.80
   8   3 -11   19.20    5.50
  -8  -3  11   12.30    3.50
   8  -3 -11   13.50    5.70
   8  -3 -11   29.90    6.90
   8   3 -10  122.59   18.00
   8   3 -10  112.79   16.10
   8   3 -10  102.09   20.40
   8   3 -10  152.88   17.00
   8  -3 -10  119.79   18.10
   8  -3 -10  154.08   18.50
  -8  -3  10  144.69   15.70
   8   3  -9    1.50    2.20
   8   3  -9    4.50    3.20
   8   3  -9    2.50    3.30
   8   3  -9    0.80    2.10
   8   3  -9    4.10    4.60
  -8  -3   9    1.60    2.20
   8  -3  -9    2.40    3.20
   8  -3  -9   -1.90    3.10
   8   3  -8   36.40    6.30
   8   3  -8   27.90    5.80
   8   3  -8   27.50    6.70
   8   3  -8   32.90    8.90
   8   3  -8   32.70    5.50
   8  -3  -8   31.80    6.90
  -8  -3   8   28.00    5.00
   8   3  -7   -0.60    2.80
   8   3  -7    2.00    2.80
   8   3  -7    0.20    2.00
   8   3  -7    2.50    2.50
   8   3  -7   -1.60    1.60
   8  -3  -7   -2.20    2.30
  -8  -3   7   -0.30    2.00
   8  -3  -7    0.90    3.00
  -8  -3   7   -0.10    1.30
  -8  -3   7    2.40    1.80
  -8   3   6    3.20    1.60
   8   3  -6    1.60    2.60
   8   3  -6    3.50    2.20
   8   3  -6    1.20    2.00
   8   3  -6    0.40    1.90
   8  -3  -6    0.80    2.40
  -8  -3   6    2.50    2.00
  -8  -3   6    2.90    1.90
  -8  -3   6    2.20    1.40
   8  -3  -6    2.30    1.40
   8  -3  -6    0.70    2.40
   8   3  -5   21.40    4.10
   8   3  -5   16.40    3.80
   8   3  -5   21.30    4.50
  -8   3   5   21.40    3.70
  -8   3   5   27.00    3.40
   8   3  -5   32.00    5.70
   8  -3  -5   21.20    4.80
  -8  -3   5   15.80    3.80
  -8  -3   5   27.30    3.70
  -8  -3   5   20.20    4.30
   8  -3  -5   19.50    4.70
   8  -3  -5   28.70    4.00
   8   3  -4  132.69   15.60
  -8   3   4  147.19   14.90
   8   3  -4  141.89   16.10
   8   3  -4  140.69   16.20
  -8  -3   4  119.39   14.80
   8  -3  -4  126.59   15.10
  -8  -3   4  122.89   15.40
  -8  -3   4  120.99   15.70
   8  -3  -4  134.19   15.70
   8  -3  -4  123.99   15.70
   8   3  -3  381.96   44.10
  -8   3   3  405.26   43.10
   8   3  -3  394.86   44.10
   8   3  -3  404.86   43.90
  -8  -3   3  360.26   43.80
   8  -3  -3  351.26   43.60
   8  -3  -3  410.16   43.50
  -8  -3   3  412.86   43.10
  -8  -3   3  356.36   43.60
   8  -3  -3  420.86   43.80
  -8   3   2   21.60    3.30
   8   3  -2   17.90    4.00
   8   3  -2   25.50    4.80
  -8  -3   2   23.60    3.20
  -8  -3   2   16.10    3.80
   8  -3  -2   24.10    4.00
  -8  -3   2   29.80    4.40
   8  -3  -2   18.20    3.40
   8  -3  -2   22.10    3.30
   8   3  -1   -1.20    1.30
  -8   3   1   -1.40    1.00
   8   3  -1   -0.40    1.50
   8  -3  -1   -0.10    1.30
  -8  -3   1    1.00    1.30
  -8  -3   1   -0.50    1.50
   8  -3  -1    1.60    1.40
   8  -3  -1   -0.40    1.20
  -8  -3   1   -0.10    0.80
  -8   3   0   47.10    6.90
  -8   3   0   52.59    6.80
   8   3   0   45.10    7.60
   8   3   0   46.10    7.30
  -8  -3   0   55.19    7.20
  -8  -3   0   51.59    6.10
   8  -3   0   54.39    6.80
  -8  -3   0   43.50    7.40
  -8  -3   0   55.49    7.30
   8  -3   0   41.80    6.80
   8  -3   0   70.29    6.90
   8   3   1    0.70    1.70
  -8   3  -1    3.20    1.90
  -8   3  -1    2.00    1.50
   8   3   1    1.00    1.70
   8  -3   1    4.40    1.60
  -8  -3  -1    1.30    1.70
  -8  -3  -1    1.90    1.80
   8  -3   1    3.80    1.90
  -8  -3  -1   -0.40    1.60
   8   3   2   11.40    2.70
   8   3   2   12.40    3.20
  -8   3  -2    7.90    2.40
  -8   3  -2    6.30    2.40
   8  -3   2    9.20    2.60
  -8  -3  -2    6.10    2.50
   8  -3   2    5.80    1.90
  -8  -3  -2    4.50    1.50
  -8  -3  -2    8.00    2.50
  -8  -3  -2    7.40    2.60
   8   3   3   17.50    4.10
  -8   3  -3   18.80    3.90
   8   3   3   23.10    3.90
  -8   3  -3   18.30    3.70
  -8  -3  -3   16.00    4.10
  -8  -3  -3   17.00    2.80
   8  -3   3   12.80    2.90
   8  -3   3   10.10    3.00
  -8  -3  -3   12.20    3.40
  -8  -3  -3   16.80    2.80
   8   3   4   24.20    4.50
  -8   3  -4   27.80    4.70
  -8   3  -4   29.20    5.20
  -8   3  -4   21.80    4.60
   8   3   4   26.60    6.80
  -8  -3  -4   21.80    5.10
  -8  -3  -4   20.60    3.70
   8  -3   4   27.00    4.70
   8  -3   4   19.40    3.80
  -8  -3  -4   24.30    4.60
  -8  -3  -4   23.40    3.80
  -8   3  -5  137.59   16.10
  -8   3  -5  123.29   16.50
  -8   3  -5  147.79   16.30
   8   3   5  135.19   15.60
  -8  -3  -5  146.39   17.70
   8  -3   5  134.79   15.60
  -8  -3  -5  121.09   15.10
  -8  -3  -5  126.49   14.90
  -8  -3  -5  124.29   15.30
   8  -3   5  112.39   15.00
  -8   3  -6  106.69   15.50
   8   3   6  115.79   14.40
  -8   3  -6  129.39   16.50
  -8   3  -6  149.59   16.50
  -8   3  -6  101.09   14.70
  -8  -3  -6  124.09   14.10
  -8  -3  -6  135.49   14.30
  -8  -3  -6  137.69   17.00
   8  -3   6   99.79   13.90
  -8  -3  -6  108.09   14.20
   8  -3   6  127.49   14.60
   8   3   7   72.69   11.20
  -8   3  -7   65.19   11.70
  -8   3  -7   79.89   12.60
  -8   3  -7   80.39   12.80
  -8   3  -7   75.69   12.20
  -8  -3  -7   95.39   10.80
  -8  -3  -7   81.69   13.10
   8  -3   7   82.09   11.40
   8  -3   7   69.59   10.60
  -8  -3  -7   94.89   11.60
  -8  -3  -7  137.69   16.40
  -8   3  -8   -5.30    2.50
   8   3   8   -0.10    1.90
  -8   3  -8   -1.30    3.40
  -8   3  -8   -0.40    3.70
  -8   3  -8   -3.80    3.30
  -8  -3  -8   -1.70    8.20
   8  -3   8    1.20    1.90
  -8  -3  -8   -2.20    2.40
  -8  -3  -8    2.00    4.20
  -8  -3  -8   -1.30    2.40
  -8   3  -9   30.20    6.60
  -8   3  -9   11.80    4.80
   8   3   9   16.90    4.00
  -8   3  -9   32.80    6.60
  -8   3  -9   24.70    6.80
  -8  -3  -9   19.40    5.00
  -8  -3  -9   24.60   11.10
   8  -3   9   13.90    3.70
  -8  -3  -9   27.20    6.90
  -8  -3  -9   17.50    4.80
   8   3  10   22.70    5.00
  -8   3 -10   30.50    7.30
  -8   3 -10   20.90    6.40
  -8   3 -10   24.80    7.10
  -8  -3 -10   43.90    7.00
  -8  -3 -10   26.40    7.80
   8  -3  10   21.70    4.60
  -8   3 -11   28.70    7.40
  -8   3 -11   46.00    9.60
   8  -3  11   27.00    5.40
  -8  -3 -11   55.49    7.90
  -8  -3 -11   21.60    8.30
  -8   3 -12    9.50    5.90
  -8   3 -12   32.70    8.00
  -8  -3 -12   26.80    8.50
  -8  -3 -12   40.20    7.00
   8  -3  12   14.30    3.80
   8   4 -15    5.20    5.20
   8   4 -15    3.80    6.40
   8  -4 -15    3.60    6.30
   8   4 -14   -1.40    4.50
   8   4 -14   -4.50    4.30
  -8  -4  14    1.30    2.90
   8  -4 -14   -5.60    5.30
   8   4 -13   17.30    6.10
   8   4 -13   17.10    5.80
   8   4 -13   12.40    7.60
   8   4 -13   19.50    6.40
  -8  -4  13   29.80    5.30
   8  -4 -13   19.00    7.30
   8   4 -12   12.40    4.90
   8   4 -12    1.40    3.80
   8   4 -12   11.50    4.40
   8   4 -12   12.30    7.40
   8  -4 -12    7.20    5.60
  -8  -4  12   11.10    3.70
   8   4 -11   38.30    7.70
   8   4 -11   41.20    7.90
   8   4 -11   51.59    9.30
   8   4 -11   40.40   11.90
   8  -4 -11   26.60    8.10
  -8  -4  11   35.10    6.50
   8   4 -10  216.58   21.60
   8   4 -10  187.98   21.90
   8   4 -10  127.19   20.60
   8   4 -10  169.78   20.00
   8   4 -10  160.48   24.70
  -8  -4  10  181.58   20.30
   8  -4 -10  172.28   23.20
   8   4  -9   40.70    6.60
   8   4  -9   37.60   10.70
   8   4  -9   33.80    7.20
   8   4  -9   42.60    8.10
   8   4  -9   50.19    7.70
  -8  -4   9   29.80    6.10
   8  -4  -9   50.69    8.80
   8   4  -8   48.80    9.10
   8   4  -8   46.10   11.50
   8   4  -8   74.09    9.50
   8   4  -8   40.10    9.00
   8   4  -8   66.19    9.00
   8  -4  -8   48.20    9.20
  -8  -4   8   68.89    8.80
  -8  -4   8   69.09    9.30
   8   4  -7   25.50    5.50
   8   4  -7   29.60    5.90
   8   4  -7   38.40    5.80
   8   4  -7   17.50    5.70
  -8  -4   7   34.20    6.00
   8  -4  -7   25.40    6.20
  -8  -4   7   33.40    5.40
   8   4  -6    1.70    2.60
   8   4  -6   -1.40    2.10
   8   4  -6    5.00    2.50
  -8   4   6    1.30    1.40
   8   4  -6    1.70    2.10
  -8  -4   6    1.70    2.00
  -8  -4   6    1.60    1.60
   8  -4  -6    3.30    2.70
  -8  -4   6    0.90    2.20
   8   4  -5   89.79   13.30
   8   4  -5  103.49   12.40
   8   4  -5  100.09   13.30
  -8   4   5   92.59   11.30
  -8  -4   5   96.79   13.00
   8  -4  -5  105.89   11.50
  -8  -4   5   99.29   12.10
  -8  -4   5   97.49   11.40
   8  -4  -5   77.59   12.70
  -8   4   4   41.50    5.00
   8   4  -4   28.30    6.30
   8   4  -4   29.60    6.00
   8   4  -4   29.20    5.70
   8  -4  -4   36.10    5.10
  -8  -4   4   44.40    6.50
   8  -4  -4   36.70    6.20
  -8  -4   4   33.80    5.60
  -8  -4   4   34.50    4.80
  -8   4   3   21.10    3.10
   8   4  -3   22.40    4.30
   8   4  -3   14.60    4.20
   8   4  -3   23.40    5.00
  -8  -4   3   20.90    3.90
  -8  -4   3   24.90    4.50
  -8  -4   3   17.50    2.90
   8  -4  -3   11.20    2.90
   8  -4  -3   16.70    3.90
   8   4  -2    4.80    2.40
  -8   4   2    8.10    2.00
   8   4  -2    8.40    3.00
   8  -4  -2    7.60    1.90
  -8  -4   2   13.00    3.40
   8  -4  -2    4.60    2.00
  -8  -4   2    9.40    1.90
  -8  -4   2    9.20    2.60
   8  -4  -2    8.30    2.60
  -8   4   1   19.90    3.10
   8   4  -1   12.50    3.40
   8   4  -1   13.00    3.80
   8  -4  -1   17.80    2.90
   8  -4  -1   15.30    3.20
  -8  -4   1   12.50    3.50
  -8  -4   1   11.70    3.20
   8  -4  -1   13.60    3.10
  -8  -4   1   14.60    2.40
   8   4   0   14.50    4.00
   8   4   0   15.50    3.70
  -8   4   0   16.90    3.30
   8  -4   0   14.70    2.90
   8  -4   0   23.00    3.80
   8  -4   0   26.80    3.80
  -8  -4   0   16.50    3.80
  -8  -4   0   17.00    3.60
  -8   4  -1    0.40    1.60
   8   4   1   -1.00    1.50
  -8   4  -1   -0.80    1.50
   8   4   1    1.10    2.00
   8  -4   1   -1.40    1.30
  -8  -4  -1    0.10    1.60
  -8  -4  -1    0.90    1.90
   8  -4   1    1.10    1.30
  -8  -4  -1   -0.70    1.70
  -8   4  -2    6.40    2.30
  -8   4  -2    3.70    2.00
   8   4   2    3.10    2.20
   8   4   2    9.20    3.10
   8  -4   2    5.30    2.40
   8  -4   2    8.40    2.20
  -8  -4  -2    3.20    2.20
  -8  -4  -2    4.10    2.30
   8   4   3    4.00    2.30
  -8   4  -3    5.40    2.30
   8   4   3    4.40    2.70
  -8   4  -3    1.40    1.90
  -8  -4  -3    4.20    2.40
   8  -4   3    3.90    1.80
  -8  -4  -3    5.10    2.60
   8  -4   3    3.40    2.00
  -8   4  -4   22.00    4.10
  -8   4  -4    9.90    3.40
  -8   4  -4   12.10    3.70
   8   4   4   17.70    3.60
  -8  -4  -4   20.60    3.90
   8  -4   4   12.90    3.50
  -8  -4  -4   13.10    2.90
   8  -4   4   13.40    3.10
  -8  -4  -4   22.20    4.60
  -8   4  -5    4.00    3.20
   8   4   5    9.80    2.80
  -8   4  -5    6.10    2.90
  -8   4  -5   -0.60    2.20
  -8  -4  -5    4.40    2.10
   8  -4   5    3.10    2.30
   8  -4   5    6.50    2.40
  -8  -4  -5    4.20    2.40
  -8  -4  -5    7.50    2.20
  -8  -4  -5   12.00    4.00
   8   4   6  106.59   13.30
  -8   4  -6  155.38   16.10
  -8   4  -6  118.89   15.20
  -8   4  -6  111.39   14.90
  -8  -4  -6   96.49   12.90
  -8  -4  -6  106.89   15.20
   8  -4   6  114.89   13.60
  -8  -4  -6  111.39   12.90
   8  -4   6   86.09   12.80
  -8   4  -7  262.17   27.90
  -8   4  -7  261.67   27.90
  -8   4  -7  229.58   27.70
   8   4   7  204.88   26.50
  -8  -4  -7  217.68   26.40
  -8  -4  -7  238.78   28.10
   8  -4   7  217.38   26.30
   8  -4   7  223.08   26.70
  -8  -4  -7  241.18   26.40
  -8   4  -8   14.50    5.60
  -8   4  -8   28.40    6.50
   8   4   8   12.70    3.70
  -8   4  -8   19.10    5.10
  -8   4  -8    8.10    4.50
   8  -4   8   13.80    3.30
  -8  -4  -8   19.10    4.20
  -8  -4  -8   13.20    4.00
  -8  -4  -8    3.50    4.70
  -8   4  -9   -5.50    2.70
   8   4   9    0.30    2.00
  -8   4  -9    3.50    4.00
  -8   4  -9   -1.70    3.90
  -8  -4  -9   -3.00    3.90
   8  -4   9   -0.40    1.90
  -8  -4  -9   -7.30    9.30
  -8  -4  -9   -2.70    2.30
  -8   4 -10   13.40    5.80
  -8   4 -10    5.50    4.00
  -8   4 -10   -2.60    3.80
  -8  -4 -10    6.00   11.20
  -8  -4 -10   -0.20    4.70
   8  -4  10   -1.60    2.30
  -8  -4 -10    8.70    3.60
  -8   4 -11   -1.60    4.00
  -8   4 -11    2.40    4.70
  -8   4 -11   -0.90    4.40
  -8  -4 -11    6.70    3.70
   8  -4  11   -1.00    2.50
  -8  -4 -11   -3.20    4.70
  -8   4 -12   12.20    8.30
  -8   4 -12   15.30    6.60
  -8  -4 -12   23.30    5.40
  -8  -4 -12   21.50    7.70
   8  -4  12   10.60    3.70
   8   5 -14    2.00    5.90
   8   5 -14    0.00    4.20
  -8  -5  14    1.10    3.40
   8  -5 -14    7.40    6.70
   8   5 -13    7.60    4.60
   8   5 -13    3.10    5.70
   8   5 -13   -1.30    3.50
  -8  -5  13   -0.10    3.00
   8  -5 -13    2.90    5.60
   8   5 -12   -2.70    3.30
   8   5 -12    4.10    3.60
   8   5 -12    1.60    5.00
   8  -5 -12   -6.00    5.00
  -8  -5  12   -2.90    2.40
   8   5 -11   15.50    5.50
   8   5 -11   20.00    9.30
   8   5 -11   16.30    5.70
  -8  -5  11   31.50    5.70
   8  -5 -11   33.70    7.90
   8   5 -10   26.70    5.30
   8   5 -10   11.90    7.30
   8   5 -10   15.00    5.10
   8   5 -10   13.40    5.10
   8  -5 -10    9.90    5.50
  -8  -5  10   27.50    5.10
   8   5  -9    6.50    3.80
   8   5  -9   -1.00    2.50
   8   5  -9   -1.10    2.70
   8   5  -9    1.50    3.60
   8   5  -9    2.00    4.80
   8  -5  -9   -1.00    3.30
  -8  -5   9    9.50    3.10
   8   5  -8   36.20    8.10
   8   5  -8   45.90   11.90
   8   5  -8   53.09    8.20
   8   5  -8   38.40    7.90
   8  -5  -8   43.10    8.60
  -8  -5   8   45.60    7.30
  -8  -5   8   56.19    8.40
   8   5  -7    3.90    3.60
   8   5  -7    0.80    2.70
  -8   5   7    6.60    2.10
   8   5  -7    9.80    3.70
  -8  -5   7    5.30    2.70
  -8  -5   7    3.00    3.00
   8  -5  -7    6.40    3.80
   8   5  -6   46.40    8.30
   8   5  -6   58.39    8.30
  -8   5   6   52.79    6.70
   8   5  -6   54.49    8.60
   8   5  -6   52.79    8.90
   8  -5  -6   40.60    8.20
  -8  -5   6   53.49    7.90
  -8  -5   6   41.00    7.80
   8   5  -5   46.60    7.10
   8   5  -5   36.80    7.00
   8   5  -5   39.60    7.30
  -8   5   5   35.50    5.50
   8  -5  -5   43.70    5.70
   8  -5  -5   34.90    6.90
  -8  -5   5   43.60    6.80
  -8  -5   5   40.70    7.10
  -8   5   4   15.50    2.80
   8   5  -4   18.20    4.50
   8   5  -4    9.00    3.90
   8   5  -4    7.90    3.30
   8  -5  -4   13.80    2.70
   8  -5  -4   13.90    3.90
  -8  -5   4   10.80    3.30
  -8  -5   4   15.10    4.20
  -8  -5   4   13.20    2.60
  -8   5   3   98.69   11.60
   8   5  -3  104.79   13.70
   8   5  -3   90.29   13.50
   8   5  -3  118.89   12.90
   8  -5  -3   94.79   11.60
  -8  -5   3   99.89   11.50
  -8  -5   3  102.09   12.40
   8  -5  -3   80.99   12.50
  -8  -5   3   89.99   13.20
  -8   5   2   41.80    5.10
   8   5  -2   38.10    6.20
   8   5  -2   24.50    6.10
   8   5  -2   47.30    7.00
  -8  -5   2   35.60    4.70
   8  -5  -2   27.50    5.00
   8  -5  -2   29.20    5.60
  -8  -5   2   30.40    5.60
  -8  -5   2   35.70    6.30
   8   5  -1   50.69    9.10
   8   5  -1   84.89    9.80
  -8   5   1   45.00    7.70
   8  -5  -1   62.99    8.40
  -8  -5   1   65.99    9.40
   8  -5  -1   58.69    7.70
   8  -5  -1   80.49    8.50
  -8  -5   1   69.59    9.10
  -8   5   0  111.99   14.30
   8   5   0   99.99   15.20
   8   5   0  110.69   16.10
   8  -5   0  117.79   14.10
  -8  -5   0  124.89   14.90
  -8  -5   0  106.79   15.50
   8  -5   0  155.88   14.80
   8  -5   0  132.29   14.70
   8   5   1    9.10    3.60
   8   5   1   13.80    3.60
  -8   5  -1   11.50    2.80
   8  -5   1   12.70    2.60
   8  -5   1    5.10    2.70
  -8  -5  -1   16.30    5.10
  -8  -5  -1   12.80    3.50
  -8   5  -2   98.19   13.10
  -8   5  -2  106.89   13.20
   8   5   2  123.09   14.00
   8   5   2  122.89   15.20
  -8  -5  -2  118.39   13.90
   8  -5   2   89.49   13.20
  -8  -5  -2  114.29   13.60
   8  -5   2  115.49   13.10
  -8   5  -3   25.70    4.80
   8   5   3   19.00    5.50
   8   5   3   26.90    5.20
  -8   5  -3   27.20    5.10
   8  -5   3   26.50    4.40
  -8  -5  -3   26.50    5.40
   8  -5   3   35.60    5.50
  -8  -5  -3   28.50    5.10
  -8   5  -4   66.09    9.40
   8   5   4   64.99    9.30
  -8   5  -4   69.69    9.30
  -8  -5  -4   87.39   10.50
   8  -5   4   53.69    8.90
   8  -5   4   50.79    8.10
  -8  -5  -4   66.99    9.10
  -8   5  -5   74.09   10.80
  -8   5  -5   96.59   11.70
   8   5   5   74.09   10.70
  -8   5  -5   75.49   11.00
   8  -5   5   72.09   10.70
   8  -5   5   72.99   10.00
  -8  -5  -5  107.29   12.40
  -8  -5  -5   66.39   10.10
  -8   5  -6   26.70    5.40
  -8   5  -6    5.50    3.60
  -8   5  -6    6.40    3.50
   8   5   6   13.10    3.60
  -8  -5  -6   24.70    5.80
   8  -5   6   12.20    3.30
   8  -5   6   14.20    3.80
  -8   5  -7   62.49    9.40
  -8   5  -7   48.40    8.80
  -8   5  -7   77.19   10.30
   8   5   7   55.09    8.20
   8  -5   7   48.20    8.00
   8  -5   7   41.60    7.30
  -8  -5  -7   59.99   10.00
  -8   5  -8    2.30    3.90
   8   5   8    0.60    2.20
  -8   5  -8   -1.90    3.10
  -8  -5  -8   -0.40    2.00
   8  -5   8    0.30    2.00
   8  -5   8    3.40    2.60
  -8  -5  -8   -4.00    3.10
  -8   5  -9   10.10    5.20
  -8   5  -9    4.80    4.50
   8   5   9    7.90    2.90
   8  -5   9   12.10    3.10
  -8  -5  -9    7.70    3.20
  -8  -5  -9   14.80    5.80
  -8   5 -10    0.30    4.20
  -8   5 -10   -3.80    4.30
  -8  -5 -10    7.40    3.40
  -8  -5 -10   -6.00    4.20
   8  -5  10    5.20    2.70
  -8   5 -11   14.80    6.10
  -8   5 -11    7.60    5.40
  -8  -5 -11    2.10    3.60
  -8  -5 -11    2.90    5.40
   8  -5  11   -2.60    2.40
   8  -6 -14    1.50    6.50
   8   6 -13    3.10    6.90
   8   6 -13   -1.70    3.20
   8   6 -13   -0.80    3.80
   8  -6 -13    6.70    6.30
  -8  -6  13    1.40    3.40
   8   6 -12    5.50    4.10
   8   6 -12    2.90    5.90
   8   6 -12    2.00    4.00
   8  -6 -12   10.50    6.80
  -8  -6  12   12.20    3.80
   8   6 -11   11.00    7.30
   8   6 -11   13.00    5.20
   8   6 -11   13.50    5.30
   8  -6 -11    8.50    6.50
  -8  -6  11   15.00    4.40
   8   6 -10    7.60    7.10
   8   6 -10   11.10    5.30
   8   6 -10   20.40    6.20
   8   6 -10   34.00    5.80
  -8  -6  10   20.30    4.90
   8  -6 -10   24.00    7.10
   8   6  -9    3.90    3.40
   8   6  -9    0.20    3.20
   8   6  -9   -1.50    2.70
   8   6  -9    2.30    5.20
  -8  -6   9   -0.60    2.60
   8  -6  -9    5.30    5.10
  -8  -6   9   -4.30    3.00
   8   6  -8  179.08   22.20
  -8   6   8  201.18   21.00
   8   6  -8  179.98   22.50
   8   6  -8  161.18   22.40
  -8  -6   8  179.88   21.70
  -8  -6   8  188.48   22.30
   8  -6  -8  155.28   23.40
   8   6  -7  201.18   23.70
  -8   6   7  215.28   22.10
   8   6  -7  159.38   23.50
   8   6  -7  208.08   23.70
  -8  -6   7  185.18   23.40
   8  -6  -7  189.98   23.90
  -8  -6   7  182.88   22.90
   8   6  -6   -2.00    3.00
  -8   6   6   -0.10    1.80
   8   6  -6    2.10    3.00
   8   6  -6    3.60    3.20
   8   6  -6    3.30    3.20
  -8  -6   6    2.40    2.80
  -8  -6   6   -0.20    2.60
   8  -6  -6    2.40    3.20
   8   6  -5    4.60    3.10
   8   6  -5    8.70    4.00
  -8   6   5    7.40    2.40
   8   6  -5    6.50    3.40
  -8  -6   5    5.30    3.40
   8  -6  -5   11.40    2.50
  -8  -6   5   11.90    3.40
   8  -6  -5   10.60    3.90
   8   6  -4    1.60    3.10
   8   6  -4    0.70    2.70
  -8   6   4   -0.60    1.70
   8   6  -4    1.30    2.60
   8  -6  -4   -0.10    1.30
   8  -6  -4   -0.80    2.50
  -8  -6   4   -0.30    2.50
  -8  -6   4    0.00    2.40
   8   6  -3   38.10    7.60
  -8   6   3   43.70    6.20
   8   6  -3   42.80    7.50
   8   6  -3   40.90    7.50
   8  -6  -3   44.90    6.20
  -8  -6   3   38.60    7.50
  -8  -6   3   48.40    7.50
   8  -6  -3   40.20    7.00
   8   6  -2   41.30    7.40
   8   6  -2   52.49    8.30
  -8   6   2   43.90    6.10
   8   6  -2   36.70    6.90
   8  -6  -2   54.39    7.20
  -8  -6   2   33.00    6.90
   8  -6  -2   34.40    5.90
  -8  -6   2   38.80    6.70
  -8   6   1   35.80    5.30
   8   6  -1   30.80    6.70
   8   6  -1   38.60    6.70
   8   6  -1   30.70    6.20
  -8  -6   1   39.50    6.60
   8  -6  -1   40.80    6.10
   8  -6  -1   34.70    5.50
  -8  -6   1   25.10    5.60
   8   6   0    0.60    3.00
   8   6   0   -0.30    2.40
  -8   6   0   -0.90    1.70
  -8  -6   0   -6.40    1.80
   8  -6   0   -0.30    1.90
   8  -6   0    1.90    2.00
  -8  -6   0    0.60    2.20
   8  -6   0   -0.20    1.40
   8   6   1   10.10    3.90
   8   6   1   16.70    4.80
  -8   6  -1   13.90    3.30
   8  -6   1   11.10    2.80
   8  -6   1   24.20    4.00
  -8  -6  -1   11.70    3.80
   8  -6   1    7.80    3.10
   8   6   2   50.49    8.10
   8   6   2   33.80    6.60
  -8   6  -2   29.90    5.80
  -8   6  -2   44.60    6.40
   8  -6   2   42.60    5.90
  -8  -6  -2   47.50    7.10
   8  -6   2   31.30    6.00
  -8   6  -3   44.70    7.80
   8   6   3   48.50    8.30
  -8   6  -3   42.70    7.70
   8  -6   3   60.29    8.50
  -8  -6  -3   62.29    8.80
   8  -6   3   57.99    7.80
  -8  -6  -3   68.69    8.80
   8   6   4  243.18   28.60
  -8   6  -4  229.28   28.50
  -8  -6  -4  262.97   29.00
  -8  -6  -4  247.98   28.40
   8  -6   4  246.88   28.10
   8  -6   4  240.88   28.50
  -8   6  -5   41.20    6.50
  -8   6  -5   31.60    6.00
  -8   6  -5   39.60    6.40
   8   6   5   34.30    5.90
   8  -6   5   25.90    5.00
  -8  -6  -5   26.70    6.30
   8  -6   5   19.10    5.00
  -8   6  -6   25.40    5.60
  -8   6  -6   20.70    5.30
  -8   6  -6   22.90    5.50
   8   6   6   23.90    5.00
  -8  -6  -6   15.60    5.50
   8  -6   6   17.40    4.10
   8  -6   6   34.00    5.70
   8   6   7    7.70    3.10
  -8   6  -7    3.60    3.60
  -8   6  -7    9.10    4.30
   8  -6   7    5.80    2.60
  -8  -6  -7   16.90    5.70
   8  -6   7    4.90    2.90
  -8   6  -8   -3.70    3.30
  -8   6  -8   -0.10    3.20
   8   6   8    2.00    2.30
   8  -6   8    1.20    2.50
   8  -6   8   -1.30    1.90
  -8  -6  -8   -0.40    3.60
  -8   6  -9    7.90    4.70
  -8   6  -9   10.00    5.20
   8  -6   9    7.20    2.90
  -8  -6  -9   23.20    6.30
  -8   6 -10    2.80    4.90
  -8   6 -10   17.00    5.90
  -8  -6 -10    6.90    5.40
   8  -6  10    1.90    2.20
   8   7 -12    2.70    6.40
   8   7 -12   -1.60    3.70
  -8  -7  12   -2.80    3.10
   8  -7 -12    1.80    6.70
   8   7 -11   25.30    7.00
   8   7 -11   15.90    8.70
  -8  -7  11   34.20    6.30
   8  -7 -11   14.90    7.20
   8   7 -10   19.40    5.00
   8   7 -10   14.90    8.10
   8   7 -10   10.10    4.70
   8  -7 -10    1.50    5.10
  -8  -7  10    7.70    3.90
   8   7  -9   -1.80    4.60
   8   7  -9   -1.40    3.20
   8   7  -9   -1.90    3.30
   8  -7  -9   -1.20    4.40
  -8  -7   9   -1.50    2.90
  -8  -7   9    5.80    4.00
   8   7  -8   35.20    7.20
   8   7  -8   31.30    7.60
  -8   7   8   25.00    4.80
   8  -7  -8   23.60    6.90
  -8  -7   8   21.50    5.60
  -8  -7   8   37.30    7.30
  -8   7   7  193.58   20.40
   8   7  -7  170.38   22.00
   8   7  -7  149.88   22.10
  -8  -7   7  182.38   21.90
  -8  -7   7  160.78   21.20
   8  -7  -7  188.88   22.60
   8   7  -6   68.29    9.90
   8   7  -6   56.99   10.80
   8   7  -6   87.19   11.70
  -8   7   6   43.20    7.70
  -8  -7   6   60.49    9.70
   8  -7  -6   63.29   10.70
  -8  -7   6   57.89    9.40
  -8   7   5   10.50    2.90
   8   7  -5   10.60    4.30
   8   7  -5   10.50    4.60
  -8  -7   5    8.70    4.00
  -8  -7   5   10.80    3.80
   8  -7  -5    7.80    4.30
  -8   7   4   11.10    2.90
   8   7  -4   14.70    4.50
   8   7  -4    8.00    4.50
  -8  -7   4   13.50    4.10
   8  -7  -4    6.40    4.10
  -8  -7   4   14.50    4.50
   8  -7  -4   11.00    2.70
   8   7  -3    0.40    3.40
  -8   7   3    0.70    1.80
   8   7  -3    1.20    3.10
  -8  -7   3   -0.90    2.50
   8  -7  -3   -2.20    1.70
  -8  -7   3    3.50    3.20
   8  -7  -3   -2.20    2.50
   8   7  -2   14.90    4.90
   8   7  -2   17.40    4.60
  -8   7   2   11.70    3.10
  -8  -7   2   11.40    4.20
   8  -7  -2   18.20    4.30
   8  -7  -2   11.80    3.30
  -8  -7   2   16.50    4.30
   8   7  -1    7.10    3.90
  -8   7   1   -1.10    1.70
   8   7  -1    2.40    2.80
   8  -7  -1   -0.50    2.50
   8  -7  -1    0.30    2.00
  -8  -7   1    0.50    3.00
  -8  -7   1    4.50    2.90
   8   7   0    0.70    3.10
   8   7   0    1.20    2.70
  -8   7   0   -0.70    1.90
   8  -7   0   -1.00    2.20
   8  -7   0    0.90    2.00
  -8  -7   0   -1.00    2.40
  -8   7  -1    1.90    1.90
   8   7   1   -4.30    1.90
   8   7   1   -0.60    3.10
   8  -7   1    1.40    1.70
   8  -7   1    1.60    2.60
   8  -7   1    1.30    2.30
  -8  -7  -1   -2.40    2.30
   8   7   2   54.69    8.80
  -8   7  -2   57.09    8.00
   8   7   2   53.59    9.30
  -8   7  -2   49.99    7.90
  -8  -7  -2   47.60    8.20
   8  -7   2   44.20    7.10
   8  -7   2   41.90    7.60
   8  -7   2   72.79    8.40
  -8   7  -3  131.69   15.40
  -8   7  -3  114.59   14.30
   8   7   3  111.19   15.50
   8  -7   3  119.89   14.60
  -8  -7  -3  123.39   14.70
   8  -7   3  100.19   13.80
   8   7   4   17.70    5.10
  -8   7  -4   23.30    5.20
  -8   7  -4   24.90    5.30
   8  -7   4   24.90    5.10
  -8  -7  -4   22.80    5.80
   8  -7   4   27.10    4.60
  -8  -7  -4   27.00    6.90
  -8   7  -5    3.00    4.00
  -8   7  -5   -1.20    2.40
  -8   7  -5    1.50    3.00
   8   7   5    2.60    2.70
  -8  -7  -5    2.20    3.40
   8  -7   5   -0.50    2.00
   8  -7   5   -3.60    2.00
   8   7   6   -2.30    2.30
  -8   7  -6    3.20    3.00
  -8   7  -6   -0.60    3.10
  -8  -7  -6   -1.40    3.10
   8  -7   6   -2.70    1.90
   8  -7   6   -1.90    2.20
   8   7   7   18.90    4.50
  -8   7  -7   13.70    4.70
  -8   7  -7   10.30    4.50
   8  -7   7   16.50    4.00
   8  -7   7   11.60    3.90
  -8  -7  -7   15.90    5.30
  -8   7  -8   -3.30    3.50
  -8   7  -8    1.80    4.00
   8   7   8   -2.50    2.50
   8  -7   8    4.80    2.90
   8  -7   8   -1.80    2.10
  -8  -7  -8   -0.60    4.20
  -8   7  -9   24.00    7.00
  -8   7  -9   37.20    7.60
   8  -7   9   21.40    5.20
   8  -7   9   16.60    4.20
  -8  -7  -9   26.50    7.30
   8   8 -11    3.80    6.40
   8   8 -11   -2.30    4.20
   8  -8 -11   -1.10    6.60
  -8  -8  11    1.30    3.60
   8   8 -10    3.90    4.50
   8   8 -10    0.60    3.30
   8   8 -10   -3.50    4.80
   8  -8 -10   -4.40    6.10
  -8  -8  10   -0.30    3.50
  -8  -8  10    1.70    4.00
   8   8  -9   -1.60    3.60
   8   8  -9   -1.10    4.90
   8   8  -9    5.30    4.10
  -8  -8   9    5.70    3.90
  -8  -8   9    1.50    3.50
   8  -8  -9    2.10    5.50
   8   8  -8    9.20    4.50
  -8   8   8    6.70    2.60
   8   8  -8    6.70    5.20
  -8  -8   8    8.10    4.00
  -8  -8   8   -0.70    3.70
   8  -8  -8    4.80    5.90
   8   8  -7   69.19   13.00
  -8   8   7   75.99   10.10
   8   8  -7   68.39   12.20
  -8  -8   7   72.89   11.40
  -8  -8   7   76.49   12.20
   8  -8  -7   98.29   13.80
   8   8  -6  120.69   16.00
  -8   8   6  110.59   13.60
   8   8  -6  126.29   17.00
   8   8  -6  108.09   17.10
  -8  -8   6  100.79   15.60
   8  -8  -6  100.49   16.20
  -8  -8   6  111.49   15.40
   8   8  -5    2.80    3.80
   8   8  -5   10.10    4.50
  -8   8   5    3.30    2.50
  -8  -8   5   10.70    4.00
  -8  -8   5   12.30    4.90
   8  -8  -5    6.00    4.70
   8   8  -4   -2.70    3.20
   8   8  -4   -1.60    3.10
  -8   8   4    4.90    2.40
  -8  -8   4    0.00    3.00
   8  -8  -4    5.20    4.40
  -8  -8   4    8.50    4.10
  -8   8   3    5.20    2.50
   8   8  -3    3.00    3.70
   8   8  -3    5.80    3.70
   8  -8  -3   -2.40    3.30
  -8  -8   3    4.40    3.50
   8  -8  -3   -0.10    2.10
  -8  -8   3    2.60    3.10
   8   8  -2   32.40    7.10
   8   8  -2   14.70    5.00
  -8   8   2   25.10    4.60
  -8  -8   2   18.80    5.30
   8  -8  -2   18.20    4.40
  -8  -8   2   26.40    6.20
   8  -8  -2   27.30    5.70
  -8   8   1   16.30    4.10
   8   8  -1   22.60    5.60
   8   8  -1   31.00    6.90
   8  -8  -1   18.70    4.30
   8  -8  -1   28.10    5.70
  -8  -8   1   26.40    5.80
   8   8   0   -1.10    2.80
  -8   8   0    0.30    1.90
   8   8   0    0.30    3.60
   8  -8   0   -2.60    2.50
   8  -8   0   -0.40    2.20
  -8  -8   0   -4.10    2.60
   8   8   1    0.50    3.70
  -8   8  -1    1.80    2.60
   8   8   1    7.70    3.80
   8  -8   1   11.60    3.90
  -8  -8  -1    1.30    3.20
   8  -8   1    3.30    2.60
   8   8   2   47.80    7.70
  -8   8  -2   30.10    6.50
   8   8   2   40.80    6.40
  -8   8  -2   33.90    6.20
   8  -8   2   24.00    6.10
   8  -8   2   32.50    5.70
   8  -8   2   50.09    7.00
  -8  -8  -2   34.10    6.70
   8   8   3  244.68   26.10
  -8   8  -3  212.88   25.10
   8  -8   3  195.28   25.20
   8  -8   3  195.58   24.60
  -8  -8  -3  229.88   25.30
  -8   8  -4    3.20    3.10
   8   8   4    3.90    3.10
   8  -8   4   -0.30    2.00
   8  -8   4   -2.40    2.60
  -8   8  -5    3.40    3.00
  -8   8  -5   -0.60    2.80
   8   8   5   -0.50    2.50
   8  -8   5    0.90    2.30
   8  -8   5   -1.70    2.70
   8   8   6    9.90    3.60
  -8   8  -6    5.20    3.60
  -8   8  -6    0.20    3.70
   8  -8   6    5.70    2.80
  -8  -8  -6   11.30    4.70
   8  -8   6    3.10    3.20
   8   8   7    4.60    2.90
  -8   8  -7   -2.20    3.50
  -8   8  -7    3.50    3.90
   8  -8   7    2.10    2.60
  -8  -8  -7    1.20    3.90
   8  -8   7   -0.20    2.60
  -8   8  -8   24.10    6.90
  -8   8  -8   13.20    5.90
  -8  -8  -8   10.60    5.60
   8  -8   8   27.50    5.80
   8  -8   8   27.30    4.90
   8   9  -9   -1.10    4.30
   8   9  -9   -0.50    4.90
   8   9  -9   -2.30    5.80
  -8  -9   9   -2.00    4.00
  -8  -9   9   -3.80    3.10
  -8   9   8    4.00    2.60
   8   9  -8    8.00    4.80
   8   9  -8    3.60    4.80
  -8  -9   8    5.20    3.90
   8  -9  -8    9.80    6.70
  -8  -9   8    0.90    4.20
  -8   9   7    3.60    2.60
   8   9  -7    8.70    5.40
   8   9  -7   -4.60    4.20
   8  -9  -7   -4.40    6.10
  -8  -9   7    2.80    4.00
  -8  -9   7   11.00    5.00
   8   9  -6   54.09    9.00
   8   9  -6   38.60    9.20
  -8   9   6   42.10    6.70
   8   9  -6   52.89   10.20
   8  -9  -6   35.40    9.00
  -8  -9   6   48.80    8.90
  -8  -9   6   34.90    7.80
   8   9  -5    6.50    4.60
  -8   9   5    0.10    2.10
   8   9  -5   -1.10    3.60
   8  -9  -5    0.40    5.00
  -8  -9   5    4.50    4.00
  -8  -9   5    2.10    3.80
  -8   9   4    1.10    2.10
   8   9  -4   -4.40    3.40
   8   9  -4   -2.70    4.00
   8  -9  -4    4.70    5.10
  -8  -9   4    2.70    3.60
  -8  -9   4    1.60    3.90
   8   9  -3   10.20    4.60
   8   9  -3    7.10    5.10
  -8   9   3   11.80    3.40
   8  -9  -3   12.80    3.50
  -8  -9   3   13.20    5.40
   8  -9  -3   13.80    5.30
   8   9  -2    6.00    3.90
  -8   9   2   -1.60    2.10
   8   9  -2    0.20    4.00
   8  -9  -2   -3.20    3.40
   8  -9  -2   -3.50    2.50
  -8  -9   2    1.00    3.80
  -8   9   1   30.60    6.20
   8   9  -1   47.10    8.30
   8   9  -1   45.40    8.90
   8  -9  -1   47.60    8.10
   8  -9  -1   36.50    6.50
  -8  -9   1   56.29    8.90
  -8   9   0    2.10    2.60
   8   9   0    0.00    3.50
   8   9   0   -2.30    3.40
   8  -9   0   -1.70    2.30
  -8  -9   0    2.30    3.60
   8  -9   0    0.50    3.40
   8   9   1    5.20    3.50
   8   9   1   12.50    4.90
  -8   9  -1    2.30    2.80
   8  -9   1    4.50    3.50
   8  -9   1    0.80    2.40
  -8  -9  -1    3.30    3.50
  -8   9  -2   15.50    4.00
   8   9   2    4.10    3.70
   8  -9   2   13.70    3.80
  -8  -9  -2    9.60    4.50
   8  -9   2   18.10    4.70
   8   9   3    1.10    2.90
  -8   9  -3    1.50    3.20
   8   9   3    2.90    3.40
   8  -9   3    2.20    3.70
   8  -9   3   -1.60    2.30
   8   9   4   60.29    9.40
   8   9   4   53.89    8.50
  -8   9  -4   50.59    8.60
   8  -9   4   80.09    9.90
   8  -9   4   41.60    7.60
   8  -9   4   50.79    8.50
   8   9   5    1.20    3.20
  -8   9  -5    2.90    3.50
   8   9   5   -1.60    3.00
  -8   9  -5   -1.40    3.00
   8  -9   5    1.80    2.30
   8  -9   5    1.60    2.70
   8  -9   5   -1.90    3.80
   8   9   6   -0.40    3.10
   8   9   6    0.60    3.10
  -8   9  -6    0.90    3.80
  -8   9  -6    0.80    3.90
   8  -9   6   -0.10    2.30
   8  -9   6  -12.10    3.40
   8  -9   6    0.90    2.90
   8  10  -7    9.00    5.80
   8  10  -7    7.70    5.50
  -8  10   7    2.60    2.80
  -8 -10   7   -0.90    4.10
  -8 -10   7   -1.40    3.80
   8  10  -6   41.60    9.90
   8  10  -6   42.00    8.80
  -8  10   6   27.70    5.70
  -8 -10   6   42.60    8.00
  -8 -10   6   31.80    7.90
  -8  10   5   -2.30    2.20
   8  10  -5    3.00    4.70
   8  10  -5   -6.10    4.20
   8  10  -5    0.70    5.20
  -8 -10   5   -1.00    4.10
  -8 -10   5   -1.80    3.80
   8 -10  -5    1.60    6.60
  -8  10   4    1.20    2.50
   8  10  -4    3.10    5.30
   8  10  -4    4.40    4.40
  -8 -10   4   -3.80    4.00
   8 -10  -4    0.60    5.80
   8  10  -3    1.80    4.00
  -8  10   3   -1.30    2.40
   8  10  -3    2.00    4.30
  -8 -10   3    3.50    4.10
   8 -10  -3   -0.20    5.40
   8  10  -2    8.90    5.90
  -8  10   2    2.40    2.70
   8  10  -2    7.40    4.80
   8 -10  -2    9.50    5.30
   8 -10  -2   -1.00    3.00
  -8 -10   2    4.50    4.30
   8  10  -1    7.20    5.40
   8  10  -1   17.60    5.40
  -8  10   1    7.80    3.30
   8 -10  -1   10.10    4.20
  -8 -10   1   12.60    4.40
   8 -10  -1   10.50    4.80
   8  10   0    0.30    4.00
   8  10   0    6.30    5.50
  -8  10   0   -1.60    2.60
  -8 -10   0    3.10    3.80
   8 -10   0    3.90    4.40
   8 -10   0    2.50    2.90
  -8  10  -1   -1.10    2.60
   8  10   1   -2.70    3.60
   8 -10   1    6.50    4.30
   8 -10   1   -3.60    2.50
  -8 -10  -1   -4.70    3.20
   8  10   2    6.90    4.30
  -8  10  -2    0.50    3.30
   8 -10   2    4.20    4.20
   8 -10   2    6.20    3.20
  -8  10  -3   -2.90    3.10
   8  10   3   -1.90    3.30
   8 -10   3    3.30    3.90
   8 -10   3    1.60    3.00
  -8  10  -4   -0.80    3.60
   8  10   4    4.30    3.80
   8  10   4   -4.30    3.20
   8 -10   4    6.70    3.70
   9   0 -16   53.19   12.00
   9   0 -16   94.09   14.80
   9   0 -15    5.10    5.40
   9   0 -15   -3.10    5.90
   9   0 -15    1.80    5.80
   9   0 -14   31.70    8.90
   9   0 -14   50.59    9.50
   9   0 -14   28.30    9.40
   9   0 -13    2.40    4.70
   9   0 -13   -2.70    3.90
   9   0 -13   -2.30    4.00
   9   0 -12    4.70    4.30
   9   0 -12    1.00    3.80
   9   0 -12    3.10    4.30
  -9   0  11    0.90    2.10
   9   0 -11   -0.80    3.20
   9   0 -11    3.40    4.00
   9   0 -11   -3.20    3.00
   9   0 -10   90.39   13.90
   9   0 -10   82.59   14.00
   9   0 -10   78.69   15.80
  -9   0  10  105.09   11.50
   9   0  -9   -0.50    3.00
   9   0  -9   -1.80    2.70
  -9   0   9    1.40    1.70
   9   0  -8    3.30    3.20
   9   0  -8    4.70    3.40
   9   0  -7    1.20    2.60
   9   0  -7    0.90    2.60
   9   0  -7    0.50    1.50
  -9   0   7    0.20    1.20
   9   0  -6    5.90    2.90
   9   0  -6    4.70    2.10
  -9   0   6    4.30    1.60
   9   0  -6    3.70    2.60
   9   0  -5    3.70    2.30
   9   0  -5   -0.90    1.50
  -9   0   5   -1.60    1.00
   9   0  -5   -2.40    1.70
   9   0  -4   20.10    3.50
   9   0  -4   19.20    3.80
  -9   0   4   16.60    2.80
   9   0  -4   10.00    3.20
   9   0  -4   21.30    4.30
   9   0  -3   -1.00    1.30
   9   0  -3   -1.30    1.40
  -9   0   3   -0.20    1.00
   9   0  -3   -1.00    1.40
  -9   0   2    2.90    1.80
   9   0  -2    0.40    1.50
  -9   0   2    5.10    1.80
   9   0  -2    2.00    1.50
  -9   0   2    3.40    1.30
   9   0  -2    6.80    2.20
   9   0  -1    1.50    1.40
  -9   0   1   -1.50    1.10
  -9   0   1   -0.50    1.20
   9   0  -1    0.50    1.30
  -9   0   1    0.20    1.00
   9   0  -1   -0.40    1.10
   9   0   0  234.88   25.50
  -9   0   0  236.08   25.20
  -9   0   0  210.68   25.20
  -9   0   0  218.58   24.60
   9   0   0  212.88   25.10
   9   0   0  222.38   24.90
   9   0   1   -0.90    0.90
  -9   0  -1   -1.00    1.70
  -9   0  -1    0.70    1.10
  -9   0  -1   -1.40    1.40
   9   0   1   -0.90    1.10
   9   0   1    0.40    1.20
  -9   0  -2   32.00    5.40
   9   0   2   29.70    4.90
  -9   0  -2   29.60    4.20
  -9   0  -2   19.10    4.60
   9   0   2   26.00    4.70
   9   0   2   23.30    4.00
   9   0   3    0.80    1.40
  -9   0  -3    1.40    1.70
  -9   0  -3    1.20    2.20
   9   0   3   -0.20    1.60
  -9   0  -3   -1.30    2.20
  -9   0  -4  230.08   27.10
  -9   0  -4  254.07   28.10
  -9   0  -4  246.68   27.90
   9   0   4  252.07   27.40
   9   0   4  220.38   26.90
  -9   0  -4  232.68   26.50
  -9   0  -5    0.80    2.00
  -9   0  -5    2.30    2.50
   9   0   5   -0.20    1.50
  -9   0  -5    0.30    3.10
   9   0   5    0.10    2.00
  -9   0  -5   -0.80    2.10
  -9   0  -6    8.10    3.90
   9   0   6    3.10    1.90
  -9   0  -6    3.70    2.90
  -9   0  -6    3.70    2.60
  -9   0  -6    8.60    4.10
  -9   0  -7    3.20    3.30
  -9   0  -7   -1.50    3.70
  -9   0  -7    2.10    3.40
   9   0   7    1.10    1.80
  -9   0  -8    2.90    3.80
   9   0   8    7.50    2.50
  -9   0  -8    6.10    4.90
  -9   0  -8   -0.20    3.40
  -9   0  -9    8.70    5.00
   9   0   9   -1.90    2.00
  -9   0  -9    1.10    4.10
  -9   0  -9   -3.50    4.70
   9   0  10  368.56   44.70
  -9   0 -10  465.35   48.10
  -9   0 -11    7.40    5.70
  -9   0 -11    2.60    5.00
   9   0  11    0.50    2.20
  -9   0 -12   15.10    5.90
  -9   0 -12   16.50    7.50
   9   1 -16   21.90    9.60
   9   1 -16   16.70    7.20
   9   1 -16   15.10    8.10
   9  -1 -16   17.50    8.30
   9  -1 -16   35.30    9.70
   9   1 -15  104.69   14.80
   9   1 -15   58.59   13.80
   9   1 -15   76.99   13.20
   9  -1 -15   72.89   13.20
   9  -1 -15   61.69   12.60
   9   1 -14   19.00    6.20
   9   1 -14   11.10    6.90
   9   1 -14   14.80    6.50
   9  -1 -14   10.00    5.70
   9  -1 -14   30.10    8.10
   9   1 -13    0.00    4.10
   9   1 -13    2.20    4.60
   9   1 -13   -1.90    4.00
   9  -1 -13   -2.10    4.40
   9  -1 -13    5.70    5.50
   9   1 -12   -0.20    3.90
   9   1 -12   -5.10    3.10
   9   1 -12   -1.80    3.60
  -9  -1  12    1.40    2.00
   9  -1 -12   -2.90    3.80
   9  -1 -12   -4.30    3.30
   9   1 -11   20.80    7.00
   9   1 -11   33.40    7.20
   9   1 -11   24.10    7.80
  -9  -1  11   37.30    5.50
   9  -1 -11   21.80    6.80
   9  -1 -11   49.80    9.00
   9   1 -10   29.30    6.80
   9   1 -10   25.90    7.70
   9   1 -10   20.00    6.40
  -9   1  10   36.10    4.90
  -9  -1  10   26.60    4.90
   9  -1 -10   24.00    6.60
   9  -1 -10   24.70    6.30
   9   1  -9   -1.00    2.70
   9   1  -9    2.00    3.40
   9   1  -9    5.00    3.30
  -9  -1   9   -2.70    1.30
   9  -1  -9   -2.50    2.60
   9  -1  -9    4.20    3.50
   9   1  -8    4.00    3.00
   9   1  -8    1.00    3.40
   9   1  -8    3.70    3.30
   9   1  -8    5.10    2.00
   9  -1  -8    1.40    3.10
  -9  -1   8    4.90    2.00
   9  -1  -8    7.40    3.70
   9   1  -7   42.80    7.20
   9   1  -7   33.70    6.40
  -9   1   7   24.20    4.60
   9   1  -7   33.20    5.40
  -9  -1   7   32.30    4.70
   9  -1  -7   35.80    6.50
  -9  -1   7   37.00    5.30
   9  -1  -7   31.30    4.90
   9  -1  -7   39.80    6.90
   9   1  -6  297.67   35.90
  -9   1   6  303.27   34.70
   9   1  -6  336.77   35.40
   9   1  -6  287.07   35.50
  -9  -1   6  318.87   34.70
   9  -1  -6  365.96   35.20
   9  -1  -6  288.57   35.80
   9  -1  -6  277.07   35.70
   9   1  -5   90.99   10.40
  -9   1   5   69.59    9.50
   9   1  -5   85.59   11.80
   9   1  -5   71.79   10.70
   9  -1  -5   82.69   11.30
   9  -1  -5   90.99   10.20
   9  -1  -5   86.89   11.40
  -9  -1   5   75.99    9.50
   9   1  -4   21.20    4.10
   9   1  -4   25.00    4.70
   9   1  -4   18.80    3.90
  -9   1   4   18.70    3.20
   9   1  -4   18.10    3.70
   9  -1  -4   22.20    4.10
   9  -1  -4   19.90    4.20
  -9  -1   4   22.40    3.30
   9  -1  -4   21.00    4.50
  -9   1   3    1.20    1.20
   9   1  -3    0.40    1.70
   9   1  -3    0.70    1.50
   9   1  -3    1.70    1.60
   9  -1  -3    0.70    1.10
   9  -1  -3   -1.80    1.00
  -9  -1   3    1.80    1.20
   9  -1  -3   -2.70    1.30
   9  -1  -3    1.20    1.70
  -9   1   2   17.80    2.80
   9   1  -2   18.00    3.90
   9   1  -2   14.20    3.20
  -9   1   2   17.10    3.00
   9   1  -2   13.10    3.10
   9  -1  -2   15.60    3.00
  -9  -1   2   15.20    4.20
   9  -1  -2   14.10    3.10
  -9  -1   2   20.20    2.70
   9  -1  -2   20.30    3.50
  -9   1   1    1.20    1.20
  -9   1   1    3.00    1.70
   9   1  -1   -0.40    1.20
   9   1  -1    1.90    1.70
   9  -1  -1    0.60    1.20
  -9  -1   1    3.00    1.10
   9  -1  -1    3.50    1.70
   9  -1  -1    5.30    1.80
  -9  -1   1    0.70    1.60
  -9  -1   1    1.60    1.40
   9   1   0  438.86   49.20
   9   1   0  411.06   49.40
  -9   1   0  479.25   48.60
  -9   1   0  437.76   48.70
  -9   1   0  452.55   49.10
   9  -1   0  464.15   49.00
   9  -1   0  413.76   49.20
  -9  -1   0  416.26   49.00
  -9  -1   0  450.05   49.20
   9  -1   0  439.86   48.80
   9   1   1   37.50    6.60
  -9   1  -1   57.09    6.80
  -9   1  -1   44.60    6.90
  -9   1  -1   51.29    7.20
   9   1   1   45.40    7.20
   9  -1   1   40.10    6.40
   9  -1   1   58.49    6.30
  -9  -1  -1   51.39    6.20
   9  -1   1   46.50    6.90
  -9  -1  -1   53.49    7.40
  -9  -1  -1   43.40    6.90
   9   1   2   19.00    4.00
   9   1   2    9.50    3.20
  -9   1  -2   26.80    4.70
  -9   1  -2   16.60    3.50
  -9   1  -2   30.10    4.80
  -9  -1  -2   19.60    3.30
   9  -1   2   21.30    3.80
  -9  -1  -2   13.40    3.90
   9  -1   2   18.40    3.30
  -9  -1  -2   23.10    4.60
  -9  -1  -2   25.10    3.10
   9   1   3   17.10    3.60
  -9   1  -3   22.90    4.10
  -9   1  -3   20.90    4.50
   9   1   3   16.00    4.00
  -9   1  -3   11.00    4.20
   9  -1   3   21.80    4.20
  -9  -1  -3   20.70    3.60
  -9  -1  -3   24.00    3.30
  -9  -1  -3   21.20    4.80
   9  -1   3   18.50    3.40
  -9   1  -4   18.80    4.80
  -9   1  -4   21.50    4.40
  -9   1  -4   24.00    4.90
   9   1   4   17.20    4.20
   9   1   4   18.70    3.70
   9  -1   4   16.60    3.50
  -9  -1  -4   22.20    3.50
  -9  -1  -4   24.50    4.20
  -9  -1  -4   25.40    5.50
   9  -1   4   17.70    4.00
  -9   1  -5  177.88   18.10
  -9   1  -5  135.99   17.60
  -9   1  -5  158.28   19.80
  -9   1  -5  140.69   19.10
   9   1   5  142.89   17.80
   9   1   5  136.09   17.20
   9  -1   5  148.79   17.60
  -9  -1  -5  151.58   16.80
  -9  -1  -5  146.39   19.40
  -9  -1  -5  142.49   17.30
   9  -1   5  131.19   16.90
  -9   1  -6   14.20    4.10
  -9   1  -6   23.40    6.20
  -9   1  -6   13.50    4.70
  -9   1  -6   14.70    4.60
   9   1   6   14.30    3.60
  -9  -1  -6   14.60    4.10
  -9  -1  -6   17.80    3.80
   9  -1   6   19.20    3.70
  -9  -1  -6   18.70    5.60
   9  -1   6   16.80    4.00
  -9   1  -7    1.70    3.40
  -9   1  -7   -0.80    3.50
   9   1   7    0.20    1.70
  -9   1  -7    4.40    4.10
  -9   1  -7   -4.80    2.70
  -9  -1  -7   -1.00    2.70
  -9  -1  -7   -0.70    3.10
  -9  -1  -7   -3.00    3.90
   9  -1   7    0.30    1.50
  -9   1  -8   19.00    6.60
  -9   1  -8   10.10    5.20
  -9   1  -8   17.70    5.10
   9   1   8   13.50    3.50
  -9   1  -8   11.80    4.50
   9  -1   8    7.00    2.70
  -9  -1  -8   10.20    4.20
  -9  -1  -8   25.60    6.60
  -9  -1  -8    6.50    3.80
  -9   1  -9  134.59   18.60
  -9   1  -9  136.69   17.60
  -9   1  -9  147.39   20.40
   9   1   9  128.89   16.40
   9  -1   9  111.69   16.00
  -9  -1  -9  149.59   17.30
  -9  -1  -9  139.09   20.40
  -9  -1  -9  170.68   19.20
  -9   1 -10    3.40    4.40
   9   1  10    2.10    2.60
  -9   1 -10   15.90    6.50
  -9  -1 -10    3.50    4.40
   9  -1  10    2.90    2.40
  -9  -1 -10    4.90    5.80
  -9   1 -11    5.20    5.90
   9   1  11    6.30    2.70
  -9   1 -11    1.80    5.40
  -9  -1 -11   -2.80    4.00
  -9  -1 -11   -2.20    5.50
   9  -1  11    2.90    2.60
  -9   1 -12    1.20    5.20
  -9   1 -12   12.20    6.80
  -9  -1 -12    0.90    4.70
   9  -1  12    3.00    2.80
  -9  -1 -12   -5.50    5.00
   9   2 -16   -5.40    5.60
   9  -2 -16   -2.30    6.20
   9   2 -15    9.60    6.10
   9   2 -15    0.00    4.60
   9   2 -15   -1.40    5.30
   9  -2 -15   11.90    6.70
   9  -2 -15    2.10    5.70
   9   2 -14   -0.70    4.10
   9   2 -14    8.20    6.30
   9   2 -14    2.20    5.10
   9  -2 -14   12.00    6.70
   9  -2 -14    7.90    6.00
   9   2 -13   -3.70    4.10
   9   2 -13    3.10    5.40
   9   2 -13    2.70    4.00
   9  -2 -13   -2.20    4.50
   9  -2 -13    3.20    5.20
  -9  -2  13    2.70    3.30
   9   2 -12    0.20    4.10
   9   2 -12    4.40    4.70
   9   2 -12    1.20    4.00
  -9  -2  12   -2.40    1.80
   9  -2 -12    1.00    3.80
   9  -2 -12   -4.40    3.60
   9   2 -11    9.50    4.80
   9   2 -11   22.00    6.00
   9   2 -11   12.20    6.40
  -9  -2  11   14.70    3.90
   9  -2 -11   18.30    6.00
   9  -2 -11   14.20    5.40
   9   2 -10   80.79   12.00
   9   2 -10   73.89   11.00
   9   2 -10   54.49   12.50
   9  -2 -10   72.89   11.40
  -9  -2  10   61.69    9.00
   9  -2 -10   61.99   11.00
   9   2  -9    9.90    4.10
   9   2  -9   16.40    3.40
   9   2  -9    3.80    4.10
   9   2  -9    8.00    4.80
   9  -2  -9   16.30    5.40
   9  -2  -9   19.10    5.30
  -9  -2   9   14.20    3.20
   9   2  -8   10.50    3.00
   9   2  -8   11.70    4.20
   9   2  -8   16.60    5.00
   9   2  -8   13.70    5.60
   9  -2  -8   11.00    4.40
   9  -2  -8    6.80    3.80
  -9  -2   8   12.10    3.00
   9   2  -7    2.40    2.80
   9   2  -7    0.80    2.90
   9   2  -7   -0.50    2.30
   9   2  -7   -0.20    1.80
   9  -2  -7   -1.50    2.50
   9  -2  -7    1.10    2.60
  -9  -2   7    0.50    1.60
  -9  -2   7   -1.10    1.40
  -9  -2   7    2.40    2.30
   9   2  -6   26.10    5.40
   9   2  -6   27.40    7.10
   9   2  -6   19.00    5.40
  -9   2   6   26.40    4.30
   9   2  -6   23.40    4.90
   9  -2  -6   36.30    4.90
  -9  -2   6   48.60    6.20
  -9  -2   6   25.90    4.60
   9  -2  -6   27.00    5.80
  -9  -2   6   32.40    4.40
   9  -2  -6   34.10    6.30
   9   2  -5  720.43   73.09
   9   2  -5  608.24   73.59
  -9   2   5  637.24   72.49
   9   2  -5  723.43   73.49
   9   2  -5  604.54   72.99
  -9  -2   5  679.43   72.39
   9  -2  -5  666.93   72.89
  -9  -2   5  651.03   72.89
  -9  -2   5  646.14   73.09
   9  -2  -5  711.53   73.59
   9  -2  -5  612.44   73.39
   9   2  -4  270.07   33.50
   9   2  -4  323.07   33.80
  -9   2   4  298.77   33.10
   9   2  -4  301.37   34.10
   9   2  -4  297.87   34.20
  -9  -2   4  321.97   33.10
  -9  -2   4  269.37   33.40
   9  -2  -4  308.27   34.00
   9  -2  -4  282.67   33.80
   9  -2  -4  304.07   33.50
  -9   2   3    2.20    1.50
   9   2  -3    3.50    2.10
  -9   2   3    2.20    1.30
   9   2  -3   -0.50    1.50
   9   2  -3    4.40    2.70
   9  -2  -3    4.40    2.30
   9  -2  -3    2.10    1.50
  -9  -2   3    3.70    1.30
   9  -2  -3    0.90    1.20
   9  -2  -3    5.90    2.20
   9   2  -2   36.00    5.60
  -9   2   2   42.10    5.10
  -9   2   2   31.30    4.60
   9   2  -2   35.50    6.00
   9  -2  -2   26.60    5.00
   9  -2  -2   38.80    5.30
  -9  -2   2   33.70    4.40
   9  -2  -2   29.20    4.60
   9   2  -1  467.95   50.89
  -9   2   1  504.05   50.59
  -9   2   1  466.25   50.49
  -9   2   1  490.15   50.19
   9   2  -1  397.66   50.99
   9  -2  -1  425.66   50.59
   9  -2  -1  436.96   50.29
  -9  -2   1  470.45   49.99
   9  -2  -1  434.26   50.39
   9   2   0   53.49    8.60
  -9   2   0   66.89    8.30
  -9   2   0   59.99    8.50
   9   2   0   66.69    9.40
   9  -2   0   62.39    8.60
   9  -2   0   73.99    8.00
  -9  -2   0   59.69    8.60
   9  -2   0   62.79    7.90
   9   2   1   12.90    3.50
  -9   2  -1   12.20    3.00
   9   2   1   12.90    3.10
  -9   2  -1   15.80    3.10
  -9  -2  -1    8.60    2.90
   9  -2   1    7.90    2.30
   9  -2   1    6.30    2.70
  -9  -2  -1    9.70    2.50
   9  -2   1   14.80    2.60
  -9   2  -2   20.20    3.90
   9   2   2   16.90    4.10
  -9   2  -2   25.50    4.30
   9   2   2   16.70    3.70
  -9   2  -2   19.10    3.80
   9  -2   2   14.90    3.10
   9  -2   2   25.00    4.20
  -9  -2  -2   17.90    4.20
  -9  -2  -2   15.90    2.90
  -9   2  -3   28.90    5.30
  -9   2  -3   35.90    5.80
  -9   2  -3   33.80    5.40
   9   2   3   25.60    4.70
   9   2   3   37.10    6.00
  -9  -2  -3   34.20    4.50
   9  -2   3   19.40    4.10
  -9  -2  -3   30.70    4.30
  -9  -2  -3   26.00    5.70
   9  -2   3   24.20    4.80
  -9   2  -4   34.50    6.70
   9   2   4   36.80    6.60
   9   2   4   36.00    5.90
  -9   2  -4   40.40    6.60
  -9   2  -4   41.80    7.00
  -9  -2  -4   34.30    6.70
  -9  -2  -4   37.70    5.30
  -9  -2  -4   39.40    5.60
   9  -2   4   37.60    5.60
   9  -2   4   29.20    5.70
  -9   2  -5   30.20    5.50
  -9   2  -5   29.20    6.30
  -9   2  -5   17.90    4.70
   9   2   5   13.50    3.70
  -9  -2  -5   26.20    5.80
  -9  -2  -5   31.30    5.00
  -9  -2  -5   15.30    3.80
   9  -2   5   18.20    3.80
  -9  -2  -5   20.30    3.70
   9  -2   5   16.90    4.20
   9   2   6    3.00    2.20
  -9   2  -6    6.40    3.80
  -9   2  -6    7.90    3.60
  -9   2  -6   13.00    4.70
   9  -2   6    4.50    2.80
   9  -2   6    1.60    2.20
  -9  -2  -6    1.70    2.20
  -9  -2  -6    8.70    2.90
  -9  -2  -6    7.70    4.20
  -9  -2  -6   10.10    3.00
  -9   2  -7    3.40    4.10
  -9   2  -7   -1.40    3.30
   9   2   7    3.10    2.20
  -9   2  -7    0.60    3.50
  -9   2  -7    1.80    3.80
  -9  -2  -7    2.00    3.80
  -9  -2  -7    2.50    2.70
  -9  -2  -7    6.10    3.00
   9  -2   7    3.70    2.40
  -9   2  -8    6.50    4.60
   9   2   8    1.30    2.30
  -9   2  -8   10.00    4.70
  -9   2  -8    1.60    3.60
  -9   2  -8   -1.60    3.90
  -9  -2  -8   -2.10    2.70
   9  -2   8    0.80    2.00
  -9  -2  -8    7.70    5.40
  -9  -2  -8   -2.00    2.90
  -9   2  -9   34.30    7.80
  -9   2  -9   22.80    6.30
  -9   2  -9   24.00    8.80
   9   2   9   25.80    5.10
  -9   2  -9   35.00    8.20
  -9  -2  -9   37.80    6.40
  -9  -2  -9   22.30    7.30
  -9  -2  -9   22.70    6.20
   9  -2   9   19.50    4.30
  -9   2 -10   33.20    8.60
   9   2  10   20.70    4.80
  -9   2 -10   22.00    6.30
  -9  -2 -10   24.00    7.80
   9  -2  10   21.30    4.40
  -9  -2 -10   30.00    6.40
  -9   2 -11    1.60    4.60
  -9   2 -11    5.60    5.80
   9  -2  11    1.00    2.60
  -9  -2 -11    8.90    4.50
  -9  -2 -11   10.40    6.30
  -9   2 -12    7.80    6.00
  -9   2 -12   -6.10    4.20
  -9  -2 -12   -4.10    5.90
   9  -2  12   -0.20    2.60
  -9  -2 -12   -0.10    4.20
   9   3 -15   22.20    9.10
   9   3 -15   22.00    7.10
   9   3 -15   44.30    9.40
   9  -3 -15   21.00    8.00
   9   3 -14   17.90    8.20
   9   3 -14   18.90    7.00
   9   3 -14   31.70    7.30
   9  -3 -14   25.50    8.00
   9  -3 -14   44.50   15.10
   9   3 -13    2.20    4.90
   9   3 -13    4.90    4.50
   9   3 -13   -2.90    3.90
   9  -3 -13    2.80    5.70
  -9  -3  13   11.30    3.70
   9  -3 -13    1.90    4.80
   9   3 -12   -6.30    3.40
   9   3 -12   -3.20    3.40
   9   3 -12   -0.10    4.30
  -9  -3  12   -2.70    2.20
   9  -3 -12    1.30    5.00
   9  -3 -12   -4.30    4.30
   9   3 -11   15.60    7.50
   9   3 -11   23.30    6.60
   9   3 -11   24.50    7.10
  -9  -3  11   38.80    5.80
   9  -3 -11   24.40    7.30
   9  -3 -11   30.30    7.50
   9   3 -10   81.29   12.50
   9   3 -10   83.49   13.50
   9   3 -10   72.29   15.60
  -9  -3  10   78.99   11.20
   9  -3 -10   85.79   13.50
   9  -3 -10  103.49   13.80
   9   3  -9   68.59   11.80
   9   3  -9   71.39   10.20
   9   3  -9   60.99   13.90
   9   3  -9   89.79   11.60
  -9  -3   9   78.79   10.30
   9  -3  -9   92.99   12.60
   9  -3  -9   66.09   11.90
   9   3  -8    7.00    4.80
   9   3  -8    7.00    4.10
   9   3  -8    5.00    2.60
   9   3  -8    2.90    3.10
   9  -3  -8    0.20    3.20
  -9  -3   8    7.30    2.60
   9  -3  -8    3.20    3.30
   9   3  -7    9.00    3.80
   9   3  -7    7.30    3.10
   9   3  -7    6.60    2.90
   9   3  -7    4.90    3.90
   9  -3  -7   16.20    4.40
  -9  -3   7    5.70    2.60
   9  -3  -7    5.30    3.60
  -9  -3   7    8.70    3.20
   9   3  -6    0.60    2.00
   9   3  -6    2.70    3.40
   9   3  -6    1.00    2.20
   9   3  -6    6.10    2.90
   9  -3  -6    4.40    1.90
  -9  -3   6    5.00    1.90
  -9  -3   6    4.70    2.60
  -9  -3   6    8.60    2.50
   9  -3  -6    4.40    2.60
   9  -3  -6    8.00    3.50
   9   3  -5   29.80    5.50
  -9   3   5   36.90    5.00
   9   3  -5   28.10    5.90
   9   3  -5   33.40    5.80
  -9  -3   5   31.90    5.70
   9  -3  -5   30.70    6.00
   9  -3  -5   32.40    4.90
   9  -3  -5   32.50    5.90
  -9  -3   5   31.60    4.60
  -9  -3   5   24.00    4.80
  -9   3   4   64.29    8.90
   9   3  -4   74.69   10.80
   9   3  -4   69.29   10.30
   9   3  -4   71.99    9.80
  -9   3   4   75.09    8.60
  -9  -3   4   69.59    9.70
  -9  -3   4   79.99   10.40
   9  -3  -4   70.69   10.20
  -9  -3   4   81.89    8.70
   9  -3  -4   70.29    9.00
   9  -3  -4   56.19    9.70
  -9   3   3   34.80    4.20
   9   3  -3   24.20    4.80
   9   3  -3   29.10    5.40
   9   3  -3   21.70    4.90
   9  -3  -3   24.50    4.20
  -9  -3   3   28.80    3.80
   9  -3  -3   24.90    4.70
  -9  -3   3   26.80    5.10
   9  -3  -3   25.30    4.90
  -9  -3   3   17.20    4.00
   9   3  -2  133.79   18.60
   9   3  -2  149.99   18.40
  -9   3   2  152.88   17.80
   9  -3  -2  154.68   18.20
  -9  -3   2  155.18   18.30
   9  -3  -2  161.88   17.80
  -9  -3   2  140.49   18.50
  -9  -3   2  169.78   17.60
   9  -3  -2  164.78   18.10
   9   3  -1  487.05   55.79
  -9   3   1  500.55   55.29
   9   3  -1  465.75   56.09
  -9   3   1  528.25   55.09
  -9  -3   1  503.15   55.69
   9  -3  -1  506.25   55.39
   9  -3  -1  495.55   55.49
   9  -3  -1  508.15   55.19
  -9  -3   1  487.35   55.99
  -9   3   0   21.20    3.70
  -9   3   0   25.60    4.10
   9   3   0   16.80    3.70
   9   3   0   17.10    4.20
  -9  -3   0   17.10    3.80
   9  -3   0   21.60    4.10
   9  -3   0   19.70    3.40
   9  -3   0   20.40    3.50
  -9  -3   0   24.40    4.50
  -9   3  -1   36.40    5.00
   9   3   1   25.30    5.10
  -9   3  -1   27.70    5.00
   9   3   1   24.30    5.30
   9  -3   1   26.10    5.00
   9  -3   1   36.40    4.80
  -9  -3  -1   29.30    5.00
  -9  -3  -1   27.00    5.20
  -9  -3  -1   37.90    6.00
   9  -3   1   28.80    4.70
  -9   3  -2    5.80    2.40
   9   3   2    3.70    2.20
   9   3   2   12.80    3.30
  -9   3  -2    4.90    2.40
  -9  -3  -2    8.20    2.80
  -9  -3  -2    3.10    1.30
  -9  -3  -2    2.40    2.30
   9  -3   2    3.30    2.00
   9  -3   2    8.60    3.00
  -9  -3  -2   10.50    2.80
   9   3   3   65.69    9.60
  -9   3  -3   54.39    8.90
   9   3   3   68.99    9.40
  -9   3  -3   54.99    9.00
  -9   3  -3   74.89    9.40
  -9  -3  -3   62.19    8.00
   9  -3   3   66.59    8.60
   9  -3   3   63.39    9.20
  -9  -3  -3   59.59    9.50
  -9  -3  -3   70.19    9.50
  -9   3  -4  143.49   15.70
  -9   3  -4  124.89   15.40
   9   3   4  147.99   17.70
   9   3   4  104.09   14.90
  -9   3  -4  135.19   15.50
  -9  -3  -4  119.29   16.40
   9  -3   4  111.29   14.60
  -9  -3  -4  148.99   15.50
  -9  -3  -4  130.39   14.30
   9  -3   4  111.69   15.20
  -9  -3  -4  108.39   14.20
   9   3   5  141.69   17.80
  -9   3  -5  162.38   18.60
  -9   3  -5  158.98   18.50
  -9   3  -5  158.68   18.60
  -9  -3  -5  169.88   17.90
   9  -3   5  148.99   18.00
   9  -3   5  137.09   17.40
  -9  -3  -5  152.88   19.70
  -9  -3  -5  139.09   17.20
  -9  -3  -5  138.69   17.00
  -9   3  -6   62.99    9.60
  -9   3  -6   58.89    9.40
   9   3   6   50.89    8.40
  -9   3  -6   55.29    9.60
  -9  -3  -6   43.00    9.30
   9  -3   6   47.30    8.40
  -9  -3  -6   52.79    8.00
   9  -3   6   55.29    7.80
  -9  -3  -6   62.59    7.60
  -9  -3  -6   59.39    8.10
   9   3   7    4.10    2.50
  -9   3  -7    4.30    4.10
  -9   3  -7    8.40    4.30
  -9   3  -7    0.80    3.60
   9  -3   7   -1.80    3.20
  -9  -3  -7    4.00    2.80
   9  -3   7    3.30    2.60
  -9  -3  -7    4.90    2.50
  -9  -3  -7    4.60    3.90
   9   3   8   13.50    4.00
  -9   3  -8   20.20    6.50
  -9   3  -8   23.50    6.30
  -9   3  -8   18.60    6.40
  -9  -3  -8   26.50    5.00
  -9  -3  -8   30.70    7.30
  -9  -3  -8   21.70    5.00
   9  -3   8   16.40    4.10
  -9   3  -9   20.40    7.00
   9   3   9   30.60    5.70
  -9   3  -9   36.70    7.70
  -9  -3  -9   29.90    7.50
   9  -3   9   20.90    5.00
  -9  -3  -9   41.60    6.40
  -9   3 -10   14.30    6.40
   9   3  10    8.10    3.00
  -9   3 -10    7.80    5.70
  -9  -3 -10   14.30    6.60
   9  -3  10    7.70    3.00
  -9  -3 -10   26.50    5.20
  -9   3 -11    0.60    5.40
  -9  -3 -11    2.80    3.80
  -9  -3 -11   -0.60    5.30
   9  -3  11    2.30    2.30
  -9   3 -12    0.00    5.20
  -9  -3 -12    3.60    6.30
  -9  -3 -12   11.20    4.70
   9  -3  12    5.30    2.90
   9   4 -15   -0.50    4.90
   9   4 -15    0.50    5.20
   9  -4 -15   -2.80    5.90
   9   4 -14    5.30    6.20
   9   4 -14    8.80    5.10
   9   4 -14    2.70    4.40
   9  -4 -14   -0.30    5.80
  -9  -4  14   10.50    4.00
   9   4 -13    0.00    4.70
   9   4 -13   -1.50    3.80
   9   4 -13    1.60    3.80
  -9  -4  13    3.60    3.00
   9  -4 -13    2.50    5.30
   9   4 -12   41.90    9.30
   9   4 -12   67.69   10.20
   9   4 -12   34.90   11.30
   9  -4 -12   37.10    9.60
  -9  -4  12   54.49    8.10
   9   4 -11  163.38   19.30
   9   4 -11  142.19   19.80
   9   4 -11   94.59   21.40
  -9  -4  11  155.18   17.00
   9  -4 -11  135.89   19.80
   9   4 -10   13.50    6.00
   9   4 -10   12.70    4.40
   9   4 -10    8.10    4.40
   9   4 -10   10.80    6.20
   9   4 -10    4.40    3.20
  -9  -4  10    9.00    3.40
   9  -4 -10    9.00    5.20
   9   4  -9    5.90    3.80
   9   4  -9    0.70    4.00
   9   4  -9   19.50    5.30
   9   4  -9    3.40    2.70
   9   4  -9    6.50    3.10
  -9  -4   9    8.00    2.90
   9  -4  -9    1.00    3.60
   9   4  -8   -3.30    2.80
   9   4  -8    0.20    2.30
   9   4  -8   -1.30    2.10
   9   4  -8    0.00    3.50
   9   4  -8   -1.60    2.80
   9  -4  -8    0.60    3.50
  -9  -4   8    1.70    2.20
  -9  -4   8   -1.90    2.70
   9   4  -7    6.30    3.00
   9   4  -7    3.20    4.30
   9   4  -7    2.50    2.70
   9   4  -7    5.00    3.90
  -9  -4   7    8.60    2.80
   9  -4  -7    7.80    3.80
  -9  -4   7    3.30    2.80
   9   4  -6   12.00    6.00
   9   4  -6   16.10    4.40
   9   4  -6   20.30    5.10
   9   4  -6   20.60    4.50
  -9  -4   6    9.80    3.30
   9  -4  -6   16.20    4.90
   9  -4  -6   20.70    4.40
  -9  -4   6   17.10    4.40
   9   4  -5   70.49    8.90
  -9   4   5   59.59    6.90
   9   4  -5   33.30    8.00
   9   4  -5   56.59    9.10
  -9  -4   5   51.29    7.10
   9  -4  -5   60.69    7.50
  -9  -4   5   57.69    8.60
  -9  -4   5   48.00    7.70
   9  -4  -5   50.59    8.60
   9   4  -4   79.39    9.70
   9   4  -4   53.79    9.30
   9   4  -4   66.29   10.10
  -9   4   4   61.49    7.90
   9  -4  -4   59.99    8.20
  -9  -4   4   55.89    9.00
  -9  -4   4   60.79    8.80
  -9  -4   4   67.89    7.70
   9  -4  -4   53.29    8.90
  -9   4   3   -1.90    1.10
   9   4  -3    1.30    2.30
   9   4  -3   -0.30    1.90
   9   4  -3   -0.10    2.20
   9  -4  -3    0.10    2.00
  -9  -4   3    0.80    2.20
   9  -4  -3    0.00    1.20
  -9  -4   3    1.00    1.30
  -9  -4   3    0.30    1.80
   9   4  -2    3.80    2.60
   9   4  -2    5.30    2.50
  -9   4   2    1.50    1.60
   9  -4  -2    3.80    2.20
  -9  -4   2    5.40    2.70
   9  -4  -2    4.60    2.00
  -9  -4   2    6.80    2.20
   9  -4  -2    1.70    1.20
  -9  -4   2    3.30    2.30
   9   4  -1    4.70    2.50
  -9   4   1    2.10    1.60
   9   4  -1    2.40    2.30
   9  -4  -1    0.70    1.40
   9  -4  -1    2.10    2.00
  -9  -4   1    5.30    2.20
   9  -4  -1    5.30    2.30
  -9  -4   1    8.10    2.90
   9   4   0   57.09    8.80
  -9   4   0   58.49    8.20
  -9   4   0   63.79    8.10
   9   4   0   68.89    9.90
  -9  -4   0   69.79    9.00
   9  -4   0   57.29    8.50
   9  -4   0   66.79    8.40
  -9  -4   0   73.59    9.70
   9  -4   0   54.79    7.90
   9   4   1  125.19   14.90
   9   4   1   96.29   13.60
  -9   4  -1   91.69   12.60
  -9   4  -1   98.59   12.80
   9  -4   1  103.59   12.50
  -9  -4  -1  119.49   13.20
   9  -4   1  112.29   13.20
  -9  -4  -1  110.39   13.40
  -9   4  -2    1.40    2.20
   9   4   2    0.50    2.00
  -9   4  -2    5.30    2.50
   9   4   2    5.70    2.90
   9  -4   2    4.90    2.20
  -9  -4  -2    4.70    2.70
   9  -4   2    4.20    2.50
  -9  -4  -2    5.10    2.70
  -9   4  -3   49.00    7.70
  -9   4  -3   46.50    7.80
   9   4   3   61.79    9.00
   9   4   3   42.70    7.60
   9  -4   3   59.39    7.50
  -9  -4  -3   61.49    8.30
  -9  -4  -3   45.70    8.10
   9  -4   3   46.40    7.50
   9   4   4   27.20    5.10
  -9   4  -4   28.00    5.20
  -9   4  -4   27.10    5.40
  -9   4  -4   24.50    5.20
  -9  -4  -4   27.60    5.00
  -9  -4  -4   21.60    5.50
   9  -4   4   27.70    5.40
   9  -4   4   22.00    4.40
  -9   4  -5  117.39   15.20
  -9   4  -5  132.39   15.40
  -9   4  -5  122.69   15.40
   9   4   5  102.19   14.10
  -9  -4  -5  100.69   13.00
   9  -4   5   85.69   13.70
   9  -4   5  108.99   13.30
  -9  -4  -5  126.59   15.70
  -9  -4  -5  114.89   13.60
  -9   4  -6  195.98   24.00
   9   4   6  213.98   23.30
  -9   4  -6  165.58   23.60
  -9   4  -6  195.78   23.80
  -9  -4  -6  215.78   22.80
   9  -4   6  185.78   23.20
  -9  -4  -6  209.38   24.40
  -9  -4  -6  189.38   22.50
   9  -4   6  196.98   22.80
  -9   4  -7    3.40    3.30
   9   4   7   -2.30    2.00
  -9   4  -7   -2.90    3.10
  -9   4  -7   -0.60    3.60
   9  -4   7    2.50    2.20
  -9  -4  -7   -1.00    2.30
  -9  -4  -7   -0.70    1.80
  -9  -4  -7    5.80    4.30
   9  -4   7   -2.50    2.60
   9   4   8   35.20    7.40
  -9   4  -8   61.89   10.40
  -9   4  -8   48.50    9.10
  -9  -4  -8   62.89    8.90
  -9  -4  -8   64.39   10.80
   9  -4   8   41.20    7.20
  -9  -4  -8   62.09    8.20
  -9   4  -9   37.60    8.90
  -9   4  -9   61.59    9.50
   9   4   9   38.60    6.50
  -9  -4  -9   46.50    7.40
   9  -4   9   28.40    6.00
  -9  -4  -9   38.70    9.00
  -9   4 -10   -0.40    4.50
  -9   4 -10    1.50    4.50
  -9  -4 -10   -6.00    4.70
   9  -4  10    0.00    2.40
  -9  -4 -10    0.40    2.80
  -9   4 -11   13.00    6.30
  -9   4 -11   -0.70    4.80
  -9  -4 -11   11.60    3.70
  -9  -4 -11   -9.20    5.00
   9  -4  11    1.70    2.70
   9   5 -14   -1.30    5.00
   9   5 -14    4.80    5.00
   9  -5 -14    2.60    6.30
  -9  -5  14    1.90    3.70
   9   5 -13    4.70    6.00
   9   5 -13   -3.00    3.70
  -9  -5  13   -0.80    3.10
   9  -5 -13    4.90    6.50
   9   5 -12   35.70    8.20
   9   5 -12   27.10   10.40
  -9  -5  12   36.60    6.50
   9  -5 -12   28.60    8.10
   9   5 -11   12.60    4.90
   9   5 -11    9.90    5.00
   9   5 -11   11.70    6.80
   9  -5 -11   10.10    6.00
  -9  -5  11    7.80    3.60
   9   5 -10   16.80    7.80
   9   5 -10   18.00    5.70
   9   5 -10   12.00    5.40
   9   5 -10   30.40    5.70
  -9  -5  10   18.10    4.70
   9  -5 -10   29.70    7.70
   9   5  -9  109.79   15.90
   9   5  -9   97.79   19.90
   9   5  -9  102.29   16.20
   9   5  -9  120.19   15.20
   9  -5  -9  112.89   16.70
  -9  -5   9  115.69   14.70
   9   5  -8   19.30    5.70
   9   5  -8   21.90    5.40
   9   5  -8   20.30    5.60
   9   5  -8   24.40    8.70
   9  -5  -8   19.50    5.90
  -9  -5   8   21.40    4.70
  -9  -5   8   28.90    5.90
   9   5  -7   61.79   10.50
   9   5  -7   64.39   11.10
   9   5  -7   61.19   10.70
  -9  -5   7   84.39   11.10
   9  -5  -7   86.99   11.90
  -9  -5   7   68.89   10.10
  -9   5   6   66.49    7.60
   9   5  -6   62.49   10.00
   9   5  -6   68.59    9.50
   9   5  -6   52.39    9.10
   9   5  -6   54.29    9.10
   9  -5  -6   38.60    8.60
  -9  -5   6   59.89    9.30
  -9  -5   6   46.30    8.30
  -9   5   5   12.50    2.50
   9   5  -5    7.50    3.80
   9   5  -5    4.80    3.50
   9   5  -5   14.30    4.00
   9  -5  -5    8.80    2.30
  -9  -5   5   12.60    3.90
   9  -5  -5   11.60    3.80
  -9  -5   5    9.00    3.20
   9   5  -4  170.18   19.60
   9   5  -4  161.68   19.80
   9   5  -4  160.98   20.00
  -9   5   4  172.88   18.40
  -9  -5   4  148.19   19.10
   9  -5  -4  134.59   19.20
   9  -5  -4  180.78   18.60
  -9  -5   4  138.19   19.40
  -9   5   3   73.49    9.10
   9   5  -3   76.69   10.80
   9   5  -3   92.59   12.00
   9   5  -3   55.79   10.40
   9  -5  -3   88.19   11.00
  -9  -5   3   60.69   10.40
  -9  -5   3   75.09   10.40
   9  -5  -3   72.49    9.30
  -9  -5   3   73.19    9.40
   9   5  -2  140.09   16.40
   9   5  -2  139.19   16.60
  -9   5   2  116.79   15.20
   9   5  -2  140.49   16.80
  -9  -5   2  126.69   15.90
   9  -5  -2  126.69   15.90
  -9  -5   2  133.69   16.40
   9  -5  -2  134.19   15.50
   9   5  -1   45.80    7.00
  -9   5   1   36.90    5.70
   9   5  -1   35.80    7.10
  -9  -5   1   40.20    7.00
   9  -5  -1   36.20    5.60
   9  -5  -1   37.90    6.10
   9  -5  -1   34.80    5.90
  -9  -5   1   42.80    6.50
  -9   5   0   45.70    6.80
   9   5   0   62.49    8.20
   9   5   0   49.30    8.30
  -9   5   0   53.09    6.90
  -9  -5   0   35.60    7.20
   9  -5   0   32.70    6.70
   9  -5   0   49.30    6.70
  -9  -5   0   55.29    7.60
   9  -5   0   56.89    7.40
   9   5   1   66.29    9.50
  -9   5  -1   65.69    8.70
   9   5   1   56.59    9.70
  -9   5  -1   55.39    8.30
   9  -5   1   51.49    8.60
   9  -5   1   58.99    8.20
  -9  -5  -1   60.89    9.40
   9  -5   1   82.09    8.80
   9   5   2    1.40    2.60
   9   5   2   -0.30    2.60
  -9   5  -2    0.50    2.20
  -9   5  -2    2.20    2.50
  -9  -5  -2    5.00    2.70
   9  -5   2    2.90    1.80
   9  -5   2    1.30    2.30
  -9   5  -3   48.40    7.30
  -9   5  -3   37.80    6.90
   9   5   3   49.80    7.90
   9   5   3   53.39    8.70
   9  -5   3   42.90    6.50
  -9  -5  -3   42.20    7.40
   9  -5   3   47.80    7.50
  -9  -5  -3   49.50    7.80
   9   5   4   33.70    5.90
  -9   5  -4   30.60    5.90
  -9   5  -4   37.30    6.20
  -9   5  -4   35.80    6.20
   9  -5   4   26.20    5.30
  -9  -5  -4   26.40    5.50
  -9  -5  -4   22.60    5.80
   9  -5   4   24.80    4.70
  -9   5  -5    3.10    2.70
  -9   5  -5   -2.10    2.50
   9   5   5    1.00    2.50
  -9   5  -5    4.00    3.20
  -9  -5  -5    0.70    2.60
  -9  -5  -5   -0.50    3.00
   9  -5   5    3.40    2.70
   9  -5   5   -3.00    1.60
  -9   5  -6   18.40    5.10
  -9   5  -6   25.40    5.80
   9   5   6   12.50    3.90
  -9   5  -6   16.80    5.20
   9  -5   6   12.50    3.60
  -9  -5  -6   20.10    5.70
   9  -5   6   16.80    4.20
  -9   5  -7   15.30    5.20
  -9   5  -7    4.20    4.40
   9   5   7    2.90    2.90
  -9  -5  -7   10.40    5.00
   9  -5   7    6.90    3.00
   9  -5   7    8.80    3.40
  -9   5  -8    6.80    4.00
   9   5   8    0.30    2.20
  -9   5  -8   -5.20    2.90
   9  -5   8    2.50    2.40
   9  -5   8   -5.00    2.60
  -9  -5  -8    0.70    4.30
  -9   5  -9    0.40    3.90
   9   5   9   -2.70    2.10
  -9   5  -9    1.90    4.70
   9  -5   9    4.60    3.00
  -9  -5  -9   -0.50    4.40
  -9   5 -10   -2.10    4.60
  -9   5 -10    4.00    5.20
  -9  -5 -10   -2.50    4.50
   9  -5  10   -3.90    2.50
  -9   5 -11   -0.50    6.00
   9   6 -13   -2.20    4.60
   9   6 -13   -0.20    4.40
  -9  -6  13   -1.30    3.10
   9  -6 -13    5.30    6.70
   9   6 -12    1.70    4.20
   9   6 -12   -0.50    5.30
   9   6 -12    4.40    4.10
   9  -6 -12    3.70    5.80
  -9  -6  12    0.10    2.90
   9   6 -11   -1.30    4.30
   9   6 -11   -1.90    3.60
   9   6 -11    0.10    3.40
   9  -6 -11    1.80    5.50
  -9  -6  11    8.60    3.80
   9   6 -10   -0.30    3.40
   9   6 -10    3.20    3.90
   9   6 -10    0.60    4.90
   9   6 -10   -0.20    3.20
  -9  -6  10    4.00    3.20
   9  -6 -10    6.00    5.20
   9   6  -9   97.29   14.40
   9   6  -9   96.49   13.30
   9   6  -9   84.59   13.90
   9   6  -9   70.29   16.90
  -9  -6   9  109.89   14.00
   9  -6  -9   84.09   14.50
  -9  -6   9   88.99   12.70
   9   6  -8   39.30   12.00
   9   6  -8   39.80    8.90
   9   6  -8   55.59    9.60
   9   6  -8   64.49    9.70
   9  -6  -8   36.30    9.00
  -9  -6   8   59.69    8.70
  -9  -6   8   59.89    9.50
   9   6  -7   19.90    5.20
   9   6  -7   10.50    4.50
  -9   6   7   17.20    3.20
   9   6  -7   16.50    5.20
  -9  -6   7   14.00    4.80
  -9  -6   7    6.20    3.40
   9  -6  -7    8.00    4.80
   9   6  -6    9.80    4.50
   9   6  -6    1.00    3.20
   9   6  -6    2.10    3.10
   9   6  -6   13.60    4.20
  -9   6   6   11.50    2.60
  -9  -6   6    6.00    3.70
  -9  -6   6    4.20    3.00
   9  -6  -6    6.30    4.20
   9   6  -5   -0.90    2.70
   9   6  -5    3.30    3.10
   9   6  -5   -2.00    2.70
  -9   6   5    0.30    1.80
  -9  -6   5   -1.40    2.50
   9  -6  -5    1.50    1.60
  -9  -6   5    4.70    3.40
   9  -6  -5    1.00    2.90
  -9   6   4    2.40    2.00
   9   6  -4    4.50    3.20
   9   6  -4    8.50    3.60
   9   6  -4    4.70    3.50
  -9  -6   4    3.40    2.80
   9  -6  -4    3.70    1.80
  -9  -6   4    1.40    2.80
   9  -6  -4    5.60    3.30
   9   6  -3    2.20    2.80
   9   6  -3   -0.80    3.00
   9   6  -3    3.10    3.10
  -9   6   3   -0.70    1.70
   9  -6  -3    4.10    3.20
   9  -6  -3   -0.90    1.50
  -9  -6   3   -2.90    2.30
  -9  -6   3    0.90    2.40
   9   6  -2   32.20    6.90
   9   6  -2   31.60    6.30
  -9   6   2   32.30    5.10
   9   6  -2   35.60    6.80
  -9  -6   2   29.80    5.70
  -9  -6   2   33.00    6.60
   9  -6  -2   33.20    6.20
   9  -6  -2   31.50    5.30
   9   6  -1    7.20    3.50
  -9   6   1    4.50    2.10
   9   6  -1    2.80    2.90
   9   6  -1    5.40    3.40
   9  -6  -1    1.70    2.50
  -9  -6   1    2.90    3.20
  -9  -6   1    2.60    2.40
   9  -6  -1    6.60    2.60
   9   6   0    1.10    3.30
  -9   6   0   -0.40    1.80
   9   6   0    5.00    2.80
   9  -6   0   -1.00    2.10
   9  -6   0    0.60    2.10
  -9  -6   0    3.40    2.80
   9  -6   0    0.30    1.80
   9   6   1   11.30    4.00
   9   6   1   19.30    5.10
  -9   6  -1    8.50    3.20
  -9   6  -1   14.10    3.50
   9  -6   1   10.20    3.30
   9  -6   1    9.90    3.30
   9  -6   1   18.30    3.30
  -9  -6  -1   19.00    4.50
   9   6   2   45.00    7.70
   9   6   2   27.10    5.70
  -9   6  -2   35.80    5.90
  -9   6  -2   27.80    5.30
   9  -6   2   29.80    5.40
   9  -6   2   25.40    4.80
  -9  -6  -2   29.90    6.00
  -9   6  -3  212.98   24.20
  -9   6  -3  202.58   24.10
   9   6   3  206.88   24.50
   9  -6   3  195.08   23.60
   9  -6   3  202.88   24.20
  -9  -6  -3  210.88   24.40
   9   6   4   48.60    7.50
  -9   6  -4   39.10    7.00
  -9   6  -4   38.10    6.70
  -9  -6  -4   44.70    6.90
  -9  -6  -4   38.70    7.30
   9  -6   4   30.40    5.70
   9  -6   4   36.20    6.50
   9   6   5   -1.70    2.00
  -9   6  -5   -3.00    2.90
  -9   6  -5   -2.50    2.70
  -9   6  -5    0.70    2.80
  -9  -6  -5    0.50    3.20
   9  -6   5   -0.40    1.90
   9  -6   5   -0.30    2.00
   9   6   6   27.50    5.20
  -9   6  -6   28.40    5.90
  -9   6  -6   25.30    5.80
   9  -6   6   28.00    5.50
  -9  -6  -6   15.80    5.60
   9  -6   6   13.20    3.90
   9   6   7   13.00    4.00
  -9   6  -7   21.00    5.80
  -9   6  -7    8.00    4.40
   9  -6   7   14.20    3.70
  -9  -6  -7   17.40    5.70
   9  -6   7   12.00    4.20
  -9   6  -8   13.90    5.30
  -9   6  -8    7.00    4.80
   9   6   8    2.30    2.60
  -9  -6  -8    8.50    5.10
   9  -6   8    9.10    3.70
   9  -6   8    6.20    3.00
  -9   6  -9    0.00    4.50
  -9   6  -9    1.50    4.40
   9  -6   9   -3.90    2.30
  -9  -6  -9   -0.80    4.80
  -9   6 -10    6.50    6.20
  -9   6 -10    7.80    5.30
  -9  -6 -10    0.10    5.40
   9  -6  10   -3.50    2.80
   9   7 -12    2.50    4.20
   9   7 -12    5.60    6.80
  -9  -7  12    8.30    4.20
   9  -7 -12    8.20    7.50
   9   7 -11   -1.50    4.90
   9   7 -11    2.10    3.80
   9  -7 -11   -1.70    5.60
  -9  -7  11    1.00    3.50
   9   7 -10    1.20    3.60
   9   7 -10    1.50    3.40
   9   7 -10    0.60    5.50
   9  -7 -10   -1.00    5.70
  -9  -7  10    0.70    3.40
   9   7  -9    0.10    4.80
   9   7  -9    9.00    4.30
   9   7  -9    5.60    4.10
  -9  -7   9    4.30    3.50
   9  -7  -9    0.80    5.50
  -9  -7   9   -3.90    3.40
   9   7  -8    4.70    4.00
   9   7  -8   14.90    5.20
   9  -7  -8   -0.20    4.60
  -9  -7   8    7.90    4.10
  -9  -7   8    1.90    4.00
   9   7  -7   33.70    7.60
   9   7  -7   37.30    7.60
  -9   7   7   33.30    5.10
  -9  -7   7   24.20    6.40
  -9  -7   7   24.60    6.10
   9  -7  -7   25.70    7.40
   9   7  -6   18.70    5.80
  -9   7   6   14.20    3.40
   9   7  -6    9.90    4.60
   9   7  -6   19.50    5.80
  -9  -7   6   19.20    4.90
   9  -7  -6   12.10    5.10
  -9  -7   6   21.30    5.30
   9   7  -5    9.40    4.40
   9   7  -5   -2.70    2.70
  -9   7   5   -1.90    1.80
  -9  -7   5    2.40    3.10
  -9  -7   5   -1.20    2.90
   9  -7  -5    1.70    3.40
  -9   7   4   -0.70    1.70
   9   7  -4    0.40    3.40
   9   7  -4    1.50    3.30
   9  -7  -4    5.50    4.00
   9  -7  -4    0.80    1.60
  -9  -7   4   -0.10    2.80
  -9  -7   4    3.60    3.50
  -9   7   3    5.30    2.20
   9   7  -3    2.30    3.60
   9   7  -3   -4.10    2.70
  -9  -7   3   -2.10    2.40
   9  -7  -3    1.30    1.80
  -9  -7   3   -0.10    3.10
   9  -7  -3    3.80    3.10
   9   7  -2   25.30    6.10
  -9   7   2   13.40    3.50
   9   7  -2   23.60    5.60
   9  -7  -2   13.70    4.30
  -9  -7   2   14.50    4.50
   9  -7  -2   17.70    4.00
  -9  -7   2   15.20    5.10
   9   7  -1   -0.30    3.10
  -9   7   1   -1.20    1.70
   9   7  -1    3.00    2.90
  -9  -7   1    3.90    3.70
   9  -7  -1   -3.60    2.00
   9  -7  -1    0.10    2.70
   9   7   0    0.40    3.60
  -9   7   0    2.20    2.20
   9   7   0    1.20    3.00
   9  -7   0    3.30    2.40
  -9  -7   0    4.90    3.20
   9  -7   0    2.20    3.00
  -9   7  -1   71.19   10.50
   9   7   1   77.99   11.70
  -9   7  -1   93.89   11.10
   9   7   1   87.29   12.60
   9  -7   1   58.79    9.80
  -9  -7  -1   76.99   11.40
   9  -7   1   92.09   11.00
   9  -7   1   77.99   11.00
  -9   7  -2    4.90    2.60
   9   7   2    2.90    3.90
   9   7   2    4.90    3.50
  -9   7  -2    2.10    2.90
   9  -7   2    1.60    2.10
   9  -7   2    0.30    2.30
  -9  -7  -2   -1.40    3.00
   9  -7   2    3.50    3.20
   9   7   3  104.19   14.50
  -9   7  -3  102.39   14.00
  -9   7  -3   88.09   13.70
   9  -7   3   83.69   13.50
   9  -7   3  138.89   14.10
   9  -7   3  103.79   12.90
  -9  -7  -3  108.59   14.30
  -9   7  -4   -2.80    2.40
   9   7   4    4.60    3.20
   9  -7   4    0.40    2.70
   9  -7   4    2.30    2.20
  -9   7  -5    1.80    3.20
  -9   7  -5    3.20    3.50
   9  -7   5    1.70    2.70
   9  -7   5    1.60    2.20
  -9   7  -6   30.80    6.70
  -9   7  -6   34.50    6.90
   9   7   6   26.70    5.90
   9  -7   6   35.70    6.30
  -9  -7  -6   35.60    7.20
   9  -7   6   23.80    4.90
   9   7   7   38.00    7.40
  -9   7  -7   58.89    9.50
  -9   7  -7   49.00    9.10
   9  -7   7   46.10    8.00
  -9  -7  -7   50.39    9.00
   9  -7   7   43.50    6.90
  -9   7  -8   18.30    6.20
   9   7   8    9.90    4.00
  -9   7  -8   19.40    6.00
   9  -7   8   19.50    4.20
  -9  -7  -8   12.80    6.20
   9  -7   8   22.20    4.90
  -9   7  -9    2.20    4.70
   9   8 -11    2.90    6.50
   9   8 -11    2.00    5.10
   9  -8 -11    4.80    7.40
  -9  -8  11    0.90    3.40
   9   8 -10   -1.00    5.90
   9   8 -10    4.30    4.20
   9   8 -10    3.20    4.30
  -9  -8  10    5.40    4.80
   9  -8 -10   -9.90    5.50
  -9  -8  10   -1.30    3.70
   9   8  -9   13.30    5.60
   9   8  -9    8.50    5.30
   9   8  -9   10.30    7.80
  -9  -8   9   18.00    5.30
   9  -8  -9   12.70    6.60
  -9  -8   9   20.50    6.10
   9   8  -8    7.30    4.70
   9   8  -8    6.90    4.60
   9  -8  -8   13.50    7.00
  -9  -8   8    6.90    3.70
  -9  -8   8    6.90    4.50
   9   8  -7  129.29   17.10
   9   8  -7  107.29   16.90
  -9   8   7  123.09   13.60
   9  -8  -7  107.59   16.80
  -9  -8   7   87.89   14.70
  -9  -8   7  101.69   16.00
   9   8  -6    7.00    4.60
   9   8  -6    8.40    4.60
  -9   8   6    1.70    2.10
   9   8  -6   -1.70    3.90
  -9  -8   6   -0.30    3.20
   9  -8  -6    5.10    5.00
  -9  -8   6    0.60    3.50
  -9   8   5    8.20    2.70
   9   8  -5    2.50    3.50
   9   8  -5    0.70    3.80
  -9  -8   5    4.80    3.70
  -9  -8   5    1.30    3.30
   9  -8  -5    5.60    4.50
  -9   8   4    3.70    2.30
   9   8  -4   -1.70    3.10
   9   8  -4   -1.40    3.00
  -9  -8   4   -1.10    3.10
  -9  -8   4   -2.30    2.90
   9  -8  -4    0.00    4.10
  -9   8   3    6.40    2.60
   9   8  -3    7.40    4.50
   9   8  -3    5.20    4.20
  -9  -8   3   -1.50    3.60
  -9  -8   3    9.20    3.90
   9  -8  -3   11.80    3.00
   9  -8  -3    4.50    4.30
   9   8  -2   15.90    4.90
   9   8  -2    8.40    4.60
  -9   8   2   10.30    3.10
   9  -8  -2   17.60    5.20
  -9  -8   2    9.10    4.50
   9  -8  -2   17.10    4.20
   9   8  -1    0.00    3.40
  -9   8   1    3.70    2.40
   9   8  -1   -4.50    2.50
   9  -8  -1   -4.30    3.00
   9  -8  -1    3.60    3.20
  -9  -8   1   -1.30    3.00
  -9   8   0    5.80    2.70
   9   8   0   -1.90    3.90
   9   8   0   -3.60    2.80
   9  -8   0   -1.10    2.90
   9  -8   0   -1.60    2.60
  -9  -8   0    4.60    3.10
   9   8   1   69.59   10.70
   9   8   1   66.59   11.20
  -9   8  -1   62.29    9.20
   9  -8   1   56.39    9.30
  -9  -8  -1   49.80    9.60
   9  -8   1   81.99   10.50
  -9   8  -2  108.79   15.00
   9   8   2  114.49   16.20
   9  -8   2  103.69   15.10
   9  -8   2  130.69   14.50
  -9  -8  -2  115.29   15.70
  -9   8  -3    7.00    3.80
   9   8   3    6.80    3.80
  -9  -8  -3    6.40    4.10
   9  -8   3   10.40    3.80
   9  -8   3   17.50    4.70
   9  -8   3    8.10    3.00
   9   8   4    2.90    3.40
  -9   8  -4   11.70    4.20
   9  -8   4    9.80    3.00
   9  -8   4    5.30    4.50
   9  -8   4    7.20    3.40
  -9   8  -5   -1.00    3.20
   9   8   5   -1.40    2.80
  -9   8  -5   -4.40    3.00
   9  -8   5   -9.40    3.40
   9  -8   5    0.70    2.50
   9  -8   5    0.20    2.30
   9   8   6    5.00    3.30
  -9   8  -6    1.50    3.60
  -9   8  -6    0.90    3.60
   9  -8   6    7.30    3.20
   9  -8   6    4.90    2.80
  -9   8  -7    8.20    4.50
   9   8   7   -1.50    2.90
  -9   8  -7   -0.50    4.40
   9  -8   7    4.10    3.30
   9  -8   7    5.40    2.80
   9   9  -9   -8.50    4.30
   9   9  -9   -0.50    4.60
   9   9  -9   -0.80    5.60
  -9  -9   9    4.40    3.90
  -9  -9   9    4.90    4.70
   9  -9  -9   -6.10    6.40
  -9   9   8  118.99   13.30
   9   9  -8  114.69   15.70
   9   9  -8   96.79   16.00
   9   9  -8   60.09   17.40
  -9  -9   8  102.09   14.10
  -9  -9   8  108.99   15.00
  -9   9   7   -3.50    1.90
   9   9  -7   10.10    5.70
   9   9  -7   -7.50    3.90
  -9  -9   7   -2.30    3.20
  -9  -9   7   -1.20    3.40
   9  -9  -7    0.70    6.50
   9   9  -6    7.40    5.20
  -9   9   6    1.30    2.50
   9   9  -6    1.20    4.50
  -9  -9   6   -1.20    3.20
  -9  -9   6   -1.30    3.70
   9  -9  -6   -0.90    5.70
  -9   9   5    2.90    2.40
   9   9  -5   10.60    4.90
   9   9  -5   -3.80    3.40
   9  -9  -5    2.70    4.40
  -9  -9   5    1.00    3.70
  -9  -9   5   -2.30    3.50
   9   9  -4    1.70    4.30
  -9   9   4    6.90    2.80
   9   9  -4    3.20    4.00
  -9  -9   4    4.80    4.40
  -9  -9   4    4.90    3.90
   9  -9  -4    9.00    5.60
   9   9  -3   93.29   13.10
  -9   9   3   85.99   11.20
   9   9  -3   97.09   14.40
   9  -9  -3   78.29   12.10
  -9  -9   3   71.69   12.60
   9  -9  -3   70.99   12.60
  -9   9   2    0.20    2.30
   9   9  -2   -3.70    3.10
   9   9  -2    4.90    4.30
  -9  -9   2   -3.80    3.20
   9  -9  -2    0.60    4.30
   9  -9  -2   -4.20    2.50
   9   9  -1    5.00    4.10
  -9   9   1    1.40    2.30
   9   9  -1    2.90    4.40
   9  -9  -1   -3.20    3.70
   9  -9  -1   -3.70    2.80
  -9  -9   1    3.30    3.60
   9   9   0    2.30    3.80
   9   9   0   -0.90    3.40
  -9   9   0   -2.30    2.40
   9  -9   0   -4.40    3.50
   9  -9   0    0.10    3.10
  -9  -9   0    1.60    3.40
  -9   9  -1    6.80    3.10
   9   9   1    4.00    3.90
   9   9   1    1.70    5.00
   9  -9   1    3.70    3.60
  -9  -9  -1    5.90    3.70
   9  -9   1    2.40    3.00
  -9   9  -2   63.09    9.10
   9   9   2   60.79    9.60
  -9  -9  -2   44.00    8.50
   9  -9   2   63.69    9.40
   9  -9   2   41.30    8.10
  -9   9  -3    1.80    3.40
   9   9   3    9.50    4.10
   9  -9   3    6.30    3.50
   9  -9   3    2.80    3.60
  -9   9  -4    5.60    3.90
   9   9   4    7.70    3.60
   9   9   4    5.30    3.90
   9  -9   4    5.50    2.90
   9  -9   4    7.40    4.20
   9  -9   4    4.60    3.40
  -9   9  -5    1.20    3.70
   9   9   5   -1.70    3.20
   9   9   5    0.20    3.20
  -9   9  -5   -1.60    3.30
   9  -9   5   -0.60    3.00
   9  -9   5   -1.10    3.80
   9  -9   5    0.30    2.40
   9  10  -6    0.90    5.50
  -9  10   6   -0.90    2.60
  -9 -10   6   -2.30    3.70
   9 -10  -6    1.60    6.50
  -9 -10   6   -1.40    3.90
   9  10  -5   -4.70    4.60
  -9  10   5   -1.90    2.40
   9  10  -5   -2.50    5.50
   9  10  -5   -1.90    4.60
   9 -10  -5   -3.50    6.30
  -9 -10   5   -5.70    4.10
   9  10  -4   10.50    4.90
   9  10  -4    2.30    5.50
  -9  10   4    2.50    2.60
   9 -10  -4    4.70    6.10
  -9 -10   4   -6.90    4.20
  -9  10   3   11.20    3.60
   9  10  -3   11.50    5.50
   9  10  -3    3.30    5.30
  -9 -10   3    7.20    4.90
   9 -10  -3    8.00    6.20
  -9  10   2    5.30    3.30
   9  10  -2    1.60    4.20
   9  10  -2    3.80    5.30
   9 -10  -2    4.00    5.40
   9 -10  -2    9.70    5.60
  -9 -10   2    3.30    4.00
  -9  10   1   -1.40    2.70
   9  10  -1    4.60    4.40
   9  10  -1   -3.50    4.70
  -9 -10   1    3.00    4.20
   9 -10  -1   -5.90    3.20
   9 -10  -1    7.20    5.20
  -9  10   0    1.10    3.00
   9  10   0   -2.50    4.70
   9  10   0   -5.90    3.10
   9 -10   0   -8.80    2.90
  -9 -10   0    0.20    3.50
   9 -10   0   -1.10    4.40
  -9  10  -1    1.60    3.20
   9  10   1   -3.70    3.80
  -9 -10  -1    0.50    3.90
   9 -10   1   -2.30    3.50
   9 -10   1    2.80    4.30
   9  10   2   62.09   10.20
  -9  10  -2   55.69    9.40
   9 -10   2   70.99   10.60
   9 -10   2   50.39    9.10
  10   0 -15   -0.90    5.20
  10   0 -15    3.60    6.80
  10   0 -14    2.90    4.80
  10   0 -14    4.20    5.10
  10   0 -13   -3.30    4.20
  10   0 -13    5.90    4.80
  10   0 -12   -2.30    3.50
  10   0 -12   -1.70    4.00
  10   0 -11    5.50    4.50
  10   0 -11    2.10    3.80
 -10   0  11    0.70    2.00
  10   0 -10    3.90    4.00
  10   0 -10    2.40    3.50
 -10   0  10    0.40    1.90
  10   0  -9   -0.80    3.20
  10   0  -9   -4.00    2.80
 -10   0   9    2.60    1.80
  10   0  -8    9.00    3.80
  10   0  -8    4.20    2.20
  10   0  -8    8.20    3.90
  10   0  -7    2.20    1.80
  10   0  -7   -2.10    2.10
  10   0  -7   -0.10    2.70
  10   0  -6  142.69   17.80
  10   0  -6  138.69   17.60
 -10   0   6  139.49   16.50
  10   0  -6  152.58   17.20
  10   0  -5    1.20    2.20
 -10   0   5    0.70    1.20
  10   0  -5   -1.20    1.50
  10   0  -5   -1.20    2.10
 -10   0   4    3.20    1.40
  10   0  -4    1.50    2.20
  10   0  -4    3.60    2.00
  10   0  -4    2.80    2.50
  10   0  -4    0.70    1.80
  10   0  -3    2.10    1.90
 -10   0   3   -0.10    1.10
  10   0  -3    0.50    1.50
  10   0  -3   -0.70    1.60
 -10   0   2  460.75   46.60
  10   0  -2  371.06   46.60
 -10   0   2  444.96   46.20
  10   0  -2  421.16   46.80
  10   0  -2  389.66   46.90
  10   0  -1   -1.10    1.30
  10   0  -1   -0.10    1.60
 -10   0   1   -1.40    1.50
  10   0  -1   -2.60    1.00
 -10   0   1   -4.50    1.20
  10   0   0   -0.50    1.20
  10   0   0    2.20    1.60
 -10   0   0   -0.50    1.70
  10   0   0   -2.00    1.40
 -10   0   0    2.90    2.00
  10   0   1    0.50    1.30
 -10   0  -1   -2.80    1.80
 -10   0  -1   -1.70    2.00
  10   0   1    2.50    1.90
 -10   0  -2   25.10    5.00
  10   0   2   23.60    4.10
  10   0   2   19.30    4.40
 -10   0  -2   16.70    4.60
  10   0   3   -1.20    1.50
 -10   0  -3   -2.60    1.70
  10   0   3   -0.10    1.70
 -10   0  -3    2.70    2.70
 -10   0  -3    0.30    2.30
  10   0   4  271.27   32.70
 -10   0  -4  295.57   33.70
  10   0   4  291.37   33.30
 -10   0  -4  287.07   32.80
 -10   0  -4  304.67   34.10
 -10   0  -5    0.00    2.50
 -10   0  -5   -4.50    2.60
  10   0   5    1.10    1.80
 -10   0  -5    3.70    3.50
  10   0   5   -2.60    2.10
  10   0   6   -1.40    1.80
 -10   0  -6    0.30    3.00
 -10   0  -6    3.40    3.90
  10   0   7    0.20    2.20
 -10   0  -7    5.70    3.90
 -10   0  -7    1.40    4.60
 -10   0  -7   -1.20    2.40
 -10   0  -8  292.77   33.40
 -10   0  -8  281.97   30.80
 -10   0  -8  289.57   31.80
  10   0   8  221.78   30.40
  10   0   9   -2.50    1.90
 -10   0  -9   -1.70    3.60
 -10   0  -9   -2.50    4.80
 -10   0 -10   14.80    5.10
 -10   0 -10   12.90    6.90
  10   0  10   15.60    4.10
 -10   0 -11    0.60    4.30
 -10   0 -11   -3.10    5.90
  10   0  11    4.30    2.90
  10   1 -15    2.30    5.60
  10   1 -15    1.20    5.30
  10  -1 -15   -3.40    5.20
  10  -1 -15    8.30    6.40
  10   1 -14    8.50    5.80
  10   1 -14    2.20    4.30
  10  -1 -14    8.90    5.60
  10  -1 -14   -4.30    4.50
  10   1 -13    0.40    4.10
  10   1 -13    5.20    5.00
  10  -1 -13    6.10    5.20
  10  -1 -13   -3.90    3.90
  10   1 -12   25.70    6.90
  10   1 -12   12.50    5.20
  10  -1 -12    9.10    5.90
  10  -1 -12   23.10    7.00
 -10  -1  12   16.70    4.00
 -10   1  11   68.19   10.40
  10   1 -11   45.50   10.10
  10   1 -11   63.59   11.50
  10  -1 -11   45.70   10.10
 -10  -1  11   63.19    8.80
  10  -1 -11   79.59   12.10
 -10   1  10   -0.40    1.70
  10   1 -10   -3.00    3.20
  10   1 -10   -0.70    3.30
  10  -1 -10    3.90    4.10
 -10  -1  10   -3.90    1.60
  10  -1 -10   -1.50    3.40
  10   1  -9   -2.90    3.10
  10   1  -9    2.00    3.60
  10  -1  -9   -3.80    2.80
 -10  -1   9    0.70    1.80
  10  -1  -9   -4.70    2.70
  10   1  -8   -0.60    2.90
  10   1  -8   -0.30    1.80
  10   1  -8    1.80    3.00
  10  -1  -8   -2.30    2.80
 -10  -1   8    0.80    1.60
  10  -1  -8    3.00    3.40
  10   1  -7   21.60    5.80
  10   1  -7   37.10    6.50
  10   1  -7   31.20    5.20
  10  -1  -7   23.80    5.90
  10  -1  -7   33.80    4.90
 -10  -1   7   27.40    4.70
  10  -1  -7   20.90    5.70
  10   1  -6  676.83   72.29
  10   1  -6  579.74   72.29
 -10   1   6  635.34   71.49
  10   1  -6  706.23   73.09
 -10  -1   6  661.73   71.49
  10  -1  -6  609.84   72.69
  10  -1  -6  671.03   71.99
  10  -1  -6  663.53   72.79
  10   1  -5   25.30    5.60
  10   1  -5   22.70    5.10
 -10   1   5   28.90    4.30
  10   1  -5   30.10    5.40
  10  -1  -5   23.00    5.20
  10  -1  -5   29.50    5.80
  10  -1  -5   33.10    5.20
 -10  -1   5   28.20    4.20
 -10   1   4   49.30    6.30
  10   1  -4   44.60    7.30
  10   1  -4   45.20    7.10
  10   1  -4   50.89    7.90
  10   1  -4   54.79    7.30
  10  -1  -4   50.59    7.80
  10  -1  -4   48.80    7.30
  10  -1  -4   39.10    7.20
 -10  -1   4   46.00    6.20
 -10   1   3    0.30    1.30
  10   1  -3    1.20    1.90
  10   1  -3    1.80    2.00
  10   1  -3    2.70    2.00
  10  -1  -3    1.50    1.70
 -10  -1   3    0.30    1.20
  10  -1  -3    0.20    1.40
  10  -1  -3   -0.50    1.90
  10  -1  -3    2.30    1.90
  10   1  -2    0.70    1.80
 -10   1   2    2.10    1.70
 -10   1   2    0.00    1.30
  10   1  -2   -0.50    1.70
  10  -1  -2    0.50    1.70
  10  -1  -2    0.20    1.40
 -10  -1   2    3.40    1.30
  10  -1  -2    2.20    1.50
  10   1  -1   76.39   10.40
  10   1  -1   66.69    9.60
 -10   1   1   79.39    9.70
 -10   1   1   67.39    8.70
  10  -1  -1   76.19    9.20
  10  -1  -1   72.59    9.90
 -10  -1   1   78.99    9.40
  10  -1  -1   72.49    9.10
 -10   1   0    2.10    2.00
  10   1   0   -0.10    1.80
  10   1   0   -0.60    1.40
 -10   1   0    2.10    1.90
 -10  -1   0    0.10    1.80
  10  -1   0   -0.30    1.30
  10  -1   0    0.20    1.20
  10  -1   0    0.40    1.60
 -10   1  -1   21.30    4.30
  10   1   1   15.60    3.50
  10   1   1   10.00    3.70
 -10   1  -1   16.40    3.90
 -10  -1  -1   17.70    4.30
  10  -1   1   20.00    4.10
  10  -1   1   18.60    3.50
  10  -1   1   23.10    3.40
 -10   1  -2   14.50    3.10
  10   1   2   11.10    3.10
 -10   1  -2   22.10    4.40
  10   1   2    6.20    2.90
 -10   1  -2   11.40    3.60
  10  -1   2    6.90    2.30
  10  -1   2   12.00    2.60
  10  -1   2   14.00    3.40
 -10  -1  -2   16.70    4.40
 -10   1  -3  109.89   13.80
  10   1   3   97.59   13.60
  10   1   3  102.39   14.50
 -10   1  -3  134.69   15.70
 -10   1  -3  113.89   15.30
  10  -1   3  118.49   14.20
  10  -1   3  114.49   13.60
 -10  -1  -3  115.19   15.60
 -10  -1  -3  118.19   13.40
 -10   1  -4    2.00    2.60
  10   1   4    5.40    2.70
  10   1   4    2.80    2.60
 -10   1  -4    8.30    3.60
 -10   1  -4   12.00    4.20
  10  -1   4    6.20    2.20
  10  -1   4    3.10    2.40
 -10  -1  -4   10.50    4.10
 -10  -1  -4   10.20    2.70
 -10  -1  -4    8.10    2.80
 -10   1  -5    1.20    2.70
  10   1   5    0.80    1.90
  10   1   5   -1.20    2.60
 -10   1  -5    0.60    3.30
 -10   1  -5    4.80    3.70
  10  -1   5    0.90    2.20
 -10  -1  -5   -3.30    3.10
 -10  -1  -5   -1.40    1.90
  10  -1   5   -0.80    1.50
 -10  -1  -5    2.50    2.00
 -10   1  -6   45.20    6.90
  10   1   6   20.90    4.90
 -10   1  -6   35.30    7.30
 -10   1  -6   30.20    7.10
  10  -1   6   23.90    4.80
 -10  -1  -6   38.20    6.10
  10  -1   6   22.10    5.40
 -10  -1  -6   32.40    5.10
 -10  -1  -6   20.10    6.60
 -10   1  -7   15.60    5.40
  10   1   7    8.40    3.10
 -10   1  -7   12.80    5.40
 -10   1  -7    7.30    4.30
 -10  -1  -7   14.30    5.80
  10  -1   7    7.40    2.90
 -10  -1  -7    9.60    4.00
 -10  -1  -7   10.10    3.60
 -10  -1  -7   15.50    4.40
 -10   1  -8  318.77   34.70
  10   1   8  249.97   33.30
 -10   1  -8  290.07   35.90
 -10  -1  -8  332.77   34.40
  10  -1   8  249.97   33.10
 -10  -1  -8  284.17   35.60
 -10  -1  -8  329.37   33.50
  10   1   9   30.50    5.90
 -10   1  -9   37.80    9.40
  10  -1   9   32.50    5.80
 -10  -1  -9   29.60    8.40
 -10  -1  -9   36.20    6.80
  10   1  10    1.80    2.50
 -10   1 -10   -3.50    4.60
 -10  -1 -10    1.80    4.10
 -10  -1 -10   -2.20    5.60
  10  -1  10    3.00    2.70
 -10   1 -11   -3.00    5.40
  10   1  11    4.70    2.90
 -10  -1 -11    0.90    6.00
 -10  -1 -11   -2.50    3.60
  10   2 -15    4.70    5.10
  10   2 -15    6.10    6.60
  10  -2 -15    2.60    6.20
  10  -2 -15    7.90    7.20
  10   2 -14    3.00    5.70
  10   2 -14    2.00    4.30
  10  -2 -14   -0.60    5.40
  10  -2 -14    2.00    5.80
  10   2 -13   13.80    5.70
  10   2 -13   12.00    5.70
  10  -2 -13    3.00    4.60
 -10  -2  13   13.70    3.80
  10  -2 -13   13.10    6.80
  10   2 -12   72.89   12.10
  10   2 -12   71.09   20.50
  10   2 -12   74.89   12.70
  10  -2 -12   81.99   13.30
  10  -2 -12   49.20   11.40
 -10  -2  12   73.89   10.10
  10   2 -11    7.30    4.40
  10   2 -11    2.80    4.60
  10  -2 -11   13.20    5.50
 -10  -2  11    6.90    3.00
  10  -2 -11   13.60    5.50
  10   2 -10   13.90    5.20
  10   2 -10    4.00    3.60
  10  -2 -10    3.00    3.70
 -10  -2  10    6.10    2.80
  10  -2 -10   16.10    5.00
  10   2  -9   -0.20    2.90
  10   2  -9   -2.20    1.80
  10   2  -9    2.30    3.80
  10  -2  -9   -3.30    2.70
  10  -2  -9    0.20    3.00
 -10  -2   9   -3.70    1.30
  10   2  -8   18.60    5.70
  10   2  -8   24.40    4.50
  10   2  -8   26.50    5.50
  10  -2  -8   20.20    5.70
  10  -2  -8   23.90    5.90
 -10  -2   8   19.20    4.20
  10   2  -7  177.98   21.60
  10   2  -7  182.18   21.00
  10   2  -7  187.18   20.80
 -10  -2   7  174.48   20.40
  10  -2  -7  181.68   21.40
 -10  -2   7  172.08   20.70
  10  -2  -7  159.68   20.00
  10  -2  -7  159.88   21.30
  10   2  -6  131.19   17.30
  10   2  -6  136.99   15.90
  10   2  -6  114.19   15.60
 -10  -2   6  129.79   15.60
  10  -2  -6  144.59   16.40
 -10  -2   6  124.29   14.70
  10  -2  -6  124.69   16.20
  10  -2  -6  131.89   15.20
 -10  -2   6  117.89   15.10
  10   2  -5   50.59    7.00
  10   2  -5   29.40    7.20
  10   2  -5   41.40    7.10
 -10   2   5   39.00    5.90
  10   2  -5   55.39    7.70
 -10  -2   5   41.00    6.90
 -10  -2   5   46.30    5.90
  10  -2  -5   54.79    8.00
 -10  -2   5   42.90    6.50
  10  -2  -5   38.20    7.10
  10  -2  -5   41.20    6.60
  10   2  -4   41.70    7.10
 -10   2   4   33.70    5.60
  10   2  -4   43.60    6.60
  10   2  -4   55.69    8.20
  10  -2  -4   36.20    6.60
 -10  -2   4   45.40    5.60
  10  -2  -4   44.50    6.50
  10  -2  -4   39.00    6.80
 -10  -2   4   38.00    6.10
  10   2  -3   19.30    4.70
 -10   2   3   20.60    3.30
  10   2  -3   21.90    4.00
  10   2  -3   18.70    4.40
 -10   2   3   23.10    4.00
  10  -2  -3   14.60    3.20
 -10  -2   3   17.90    3.00
  10  -2  -3   20.90    4.30
  10  -2  -3   14.20    3.40
  10  -2  -3   17.90    4.10
  10   2  -2  416.66   50.49
 -10   2   2  467.05   49.60
 -10   2   2  469.05   49.80
  10   2  -2  443.46   50.19
  10  -2  -2  444.16   50.09
  10  -2  -2  478.25   49.80
  10  -2  -2  408.56   49.90
  10   2  -1  114.89   14.00
 -10   2   1  117.89   13.30
  10   2  -1  105.79   14.80
 -10   2   1  113.99   13.70
  10  -2  -1  114.99   13.90
  10  -2  -1  106.49   13.50
  10  -2  -1  120.09   13.50
  10   2   0   31.60    6.30
  10   2   0   39.50    6.30
 -10   2   0   41.90    6.20
  10  -2   0   35.30    6.00
  10  -2   0   45.80    5.90
  10  -2   0   47.50    5.90
 -10  -2   0   32.80    6.00
 -10   2  -1   -3.90    2.40
  10   2   1    2.50    2.30
 -10   2  -1    0.60    1.90
 -10   2  -1   -0.70    2.00
  10   2   1    3.10    2.10
 -10  -2  -1   -2.90    1.90
  10  -2   1   -0.60    1.70
  10  -2   1    4.00    1.70
  10  -2   1    0.80    1.30
 -10   2  -2   -1.40    1.90
  10   2   2   -1.10    2.10
 -10   2  -2    0.40    2.40
  10   2   2   -2.30    1.60
 -10   2  -2    0.40    2.10
  10  -2   2   -1.20    1.20
 -10  -2  -2    0.80    2.50
  10  -2   2   -1.40    1.60
  10  -2   2   -0.70    1.60
  10   2   3   46.60    8.00
  10   2   3   52.89    7.80
 -10   2  -3   42.20    7.80
 -10   2  -3   67.49    9.00
 -10   2  -3   52.09    7.90
  10  -2   3   52.29    7.10
 -10  -2  -3   53.09    6.30
 -10  -2  -3   57.39    9.00
  10  -2   3   37.20    7.30
  10   2   4   73.89   11.10
 -10   2  -4   87.79   12.20
 -10   2  -4   85.59   12.30
  10   2   4   85.79   11.90
 -10   2  -4  105.19   12.20
 -10  -2  -4   83.19   10.10
 -10  -2  -4   85.19    9.80
  10  -2   4   69.99   10.40
 -10  -2  -4   83.49   12.60
  10  -2   4   68.39   11.00
 -10   2  -5    1.70    3.40
 -10   2  -5    8.10    3.60
 -10   2  -5    1.80    3.00
  10   2   5    1.10    2.30
 -10  -2  -5    6.40    3.80
 -10  -2  -5    4.40    2.30
 -10  -2  -5    5.50    3.00
  10  -2   5    2.20    1.80
 -10  -2  -5    4.90    2.10
  10  -2   5   -0.80    2.30
 -10   2  -6    6.10    4.70
 -10   2  -6    3.90    3.50
 -10   2  -6    2.30    3.60
  10   2   6    8.30    3.10
 -10  -2  -6    7.80    3.40
  10  -2   6    5.60    2.40
 -10  -2  -6   15.30    5.20
  10  -2   6    6.30    3.40
 -10  -2  -6    6.90    3.10
 -10  -2  -6   10.90    2.80
 -10   2  -7   11.30    4.90
 -10   2  -7    9.40    4.70
 -10   2  -7    7.50    4.90
  10   2   7    9.30    3.20
 -10  -2  -7    4.40    4.90
 -10  -2  -7   11.40    3.70
  10  -2   7    9.50    2.90
 -10  -2  -7    9.80    3.20
 -10   2  -8   14.80    5.20
  10   2   8    6.00    3.20
 -10   2  -8   10.00    5.70
 -10   2  -8    9.10    4.90
 -10  -2  -8    3.80    3.80
 -10  -2  -8   10.00    3.80
 -10  -2  -8    8.10    5.80
  10  -2   8    4.70    2.50
 -10   2  -9   40.70    9.80
 -10   2  -9   48.30    9.70
  10   2   9   38.40    7.10
 -10  -2  -9   50.99    7.80
 -10  -2  -9   30.80    8.80
  10  -2   9   34.00    6.30
 -10   2 -10   -1.60    5.30
  10   2  10    2.70    2.70
 -10  -2 -10    9.50    6.50
  10  -2  10   -3.30    1.90
 -10  -2 -10    8.70    4.10
 -10   2 -11    6.00    5.60
 -10  -2 -11    2.50    6.00
 -10  -2 -11    8.50    4.00
  10  -2  11   -0.30    2.30
  10   3 -15   15.40    6.30
  10   3 -15   14.00    6.70
  10  -3 -15   -1.00    6.10
  10   3 -14   -3.40    4.10
  10   3 -14   -2.10    4.80
  10   3 -14   -2.00    5.00
  10  -3 -14    6.30    6.20
  10   3 -13    3.20    4.90
  10   3 -13   -4.20    3.50
  10   3 -13   -1.20    4.70
  10  -3 -13   -3.80    4.80
 -10  -3  13   -1.20    2.40
  10   3 -12    5.10    4.20
  10   3 -12    7.10    6.30
  10   3 -12    4.90    4.80
 -10  -3  12    5.10    3.20
  10  -3 -12   12.50    6.20
  10  -3 -12   -1.10    4.50
  10   3 -11    1.20    4.40
  10   3 -11    6.80    4.20
  10   3 -11    0.70    4.50
  10  -3 -11    8.80    5.50
  10  -3 -11   18.60    6.60
 -10  -3  11    3.30    2.70
  10   3 -10   11.00    5.10
  10   3 -10   18.70    5.30
  10   3 -10    8.10    5.90
  10  -3 -10   17.10    6.20
 -10  -3  10   17.20    4.10
  10  -3 -10   31.50    7.00
  10   3  -9    3.90    3.70
  10   3  -9   -0.90    3.40
  10   3  -9    2.50    3.60
  10   3  -9    1.90    2.40
 -10  -3   9   -2.40    1.90
  10  -3  -9   -1.00    3.70
  10  -3  -9    0.30    3.40
  10   3  -8    9.40    3.40
  10   3  -8   13.40    4.30
  10   3  -8    8.00    5.40
  10   3  -8   15.70    5.10
  10  -3  -8   17.00    5.30
 -10  -3   8   18.20    4.00
  10  -3  -8   18.40    5.50
  10   3  -7   40.10    6.70
  10   3  -7   27.20    6.90
 -10  -3   7   41.20    6.80
 -10  -3   7   35.80    6.10
  10  -3  -7   32.30    7.30
  10  -3  -7   44.90    7.70
  10   3  -6   10.70    4.00
  10   3  -6   10.30    3.40
  10  -3  -6   10.90    3.90
  10  -3  -6    7.00    2.40
  10  -3  -6    3.80    3.50
 -10  -3   6    6.80    3.00
 -10  -3   6    9.60    2.90
  10   3  -5   -0.60    2.60
  10   3  -5   -1.50    2.00
  10   3  -5    3.80    2.60
 -10  -3   5   -0.30    1.40
 -10  -3   5    0.00    1.70
  10  -3  -5    0.80    1.50
  10  -3  -5   -2.00    2.00
  10  -3  -5    0.70    2.40
 -10  -3   5    0.10    2.30
 -10   3   4   -0.10    1.40
  10   3  -4   -0.60    2.30
  10   3  -4    2.10    2.40
  10   3  -4   -1.60    1.90
  10  -3  -4    2.60    1.70
  10  -3  -4   -2.30    1.80
  10  -3  -4    2.00    2.60
 -10  -3   4    1.00    1.30
 -10  -3   4   -0.60    1.70
 -10  -3   4    1.00    1.70
 -10   3   3  228.78   25.10
  10   3  -3  224.48   25.90
  10   3  -3  200.38   26.10
 -10   3   3  224.98   25.10
  10   3  -3  230.38   26.40
  10  -3  -3  204.88   25.70
  10  -3  -3  210.68   25.40
 -10  -3   3  205.78   25.60
 -10  -3   3  257.27   25.00
 -10  -3   3  216.78   26.00
  10  -3  -3  227.18   25.90
  10   3  -2  326.17   38.90
  10   3  -2  366.76   38.70
 -10   3   2  376.66   38.00
  10  -3  -2  339.47   38.20
  10  -3  -2  354.06   37.90
 -10  -3   2  340.17   38.30
 -10  -3   2  312.17   38.60
  10  -3  -2  294.97   38.10
 -10   3   1   10.40    2.80
  10   3  -1   13.50    3.40
  10   3  -1   14.10    3.80
 -10  -3   1   16.70    3.90
 -10  -3   1    6.30    2.60
  10  -3  -1    6.70    2.40
  10  -3  -1   13.50    2.60
  10  -3  -1    8.50    2.70
  10   3   0   -0.30    2.30
 -10   3   0   -1.50    1.80
  10   3   0    3.90    2.20
  10  -3   0    1.80    1.90
  10  -3   0    2.50    1.50
 -10  -3   0   -1.20    1.70
  10  -3   0    1.40    1.90
 -10  -3   0    2.10    2.30
  10   3   1   28.40    5.40
  10   3   1   19.80    4.30
 -10   3  -1   21.50    4.50
 -10   3  -1   18.30    4.00
  10  -3   1   16.90    3.60
  10  -3   1   27.70    4.70
 -10  -3  -1   22.00    4.60
  10  -3   1   16.90    3.60
 -10  -3  -1   34.30    5.00
 -10  -3  -1   23.80    5.10
 -10   3  -2   -0.30    2.00
 -10   3  -2    2.70    2.50
  10   3   2   -0.90    1.70
  10   3   2    0.50    2.40
 -10   3  -2    1.80    2.20
  10  -3   2    3.80    1.90
 -10  -3  -2    0.50    2.10
 -10  -3  -2   -3.30    2.20
  10  -3   2    1.20    2.10
  10  -3   2    1.80    2.30
 -10   3  -3   13.80    4.30
  10   3   3   19.10    4.30
  10   3   3    8.00    3.90
 -10   3  -3   24.60    5.00
 -10   3  -3   23.90    4.70
 -10  -3  -3   20.80    5.00
  10  -3   3   23.50    4.80
  10  -3   3   12.10    3.30
 -10  -3  -3   25.60    5.00
  10   3   4  272.47   34.10
 -10   3  -4  307.07   34.40
 -10   3  -4  303.77   34.70
 -10   3  -4  281.37   34.50
  10   3   4  333.17   35.30
 -10  -3  -4  296.07   34.90
  10  -3   4  281.87   34.20
 -10  -3  -4  348.97   34.70
  10  -3   4  277.17   33.70
 -10   3  -5  134.89   17.90
 -10   3  -5  100.09   16.80
  10   3   5  134.09   16.40
 -10   3  -5  178.28   18.40
 -10  -3  -5  158.08   18.90
 -10  -3  -5  131.89   16.20
 -10  -3  -5  118.69   15.40
 -10  -3  -5  132.69   15.30
  10  -3   5  120.19   15.70
  10  -3   5  139.69   16.60
 -10   3  -6   -0.70    3.90
  10   3   6    1.70    2.40
 -10   3  -6    3.70    3.50
 -10   3  -6   -1.40    3.60
 -10  -3  -6    0.60    1.90
  10  -3   6    2.70    2.70
 -10  -3  -6   -4.90    3.10
  10  -3   6    0.90    2.40
 -10  -3  -6   -4.00    2.30
 -10  -3  -6    1.60    2.10
 -10   3  -7   13.80    5.20
 -10   3  -7   11.50    5.00
  10   3   7   12.80    3.60
 -10   3  -7    6.30    5.00
  10  -3   7   12.60    4.10
 -10  -3  -7   11.80    5.30
  10  -3   7    8.00    3.20
 -10  -3  -7    9.90    3.50
 -10  -3  -7   10.90    3.10
 -10   3  -8   26.50    7.10
  10   3   8   12.50    4.00
 -10   3  -8   13.30    5.50
 -10  -3  -8   15.30    6.20
  10  -3   8   10.30    3.40
 -10  -3  -8   20.60    4.50
 -10   3  -9   15.00    6.40
  10   3   9   17.20    4.40
 -10   3  -9    6.50    6.00
 -10  -3  -9   26.20    5.10
  10  -3   9   12.50    3.50
 -10  -3  -9   15.20    6.40
  10   3  10    8.90    3.70
 -10   3 -10    8.70    5.90
 -10   3 -10    9.70    5.60
 -10  -3 -10   27.70    8.20
  10  -3  10   11.20    3.30
 -10  -3 -10   30.80    5.30
 -10   3 -11    2.00    5.30
  10  -3  11   -1.60    2.40
 -10  -3 -11   -1.00    5.50
 -10  -3 -11   10.80    4.00
  10   4 -14    6.00    5.10
  10   4 -14   -5.00    4.10
  10   4 -14    0.70    5.80
 -10  -4  14    5.00    3.60
  10  -4 -14    1.40    6.30
  10   4 -13   25.90    9.80
  10   4 -13   33.00    7.60
  10   4 -13   42.60    9.40
  10  -4 -13   16.40    7.90
 -10  -4  13   40.60    6.80
  10   4 -12   35.40   11.40
  10   4 -12   28.80    8.60
  10   4 -12   57.89    9.40
  10  -4 -12   54.69   10.90
 -10  -4  12   49.80    7.90
  10   4 -11   13.20    5.70
  10   4 -11    2.80    5.20
  10   4 -11    8.90    4.60
  10  -4 -11    7.20    5.80
 -10  -4  11   12.70    3.80
  10   4 -10    6.90    3.20
  10   4 -10    1.90    3.70
  10   4 -10    0.90    4.60
  10   4 -10    8.30    4.20
  10  -4 -10    7.60    5.00
 -10  -4  10    6.60    3.20
  10   4  -9    3.10    3.80
  10   4  -9    4.20    4.70
  10   4  -9    0.60    2.70
  10  -4  -9    6.80    4.70
 -10  -4   9    1.40    2.60
  10   4  -8    1.00    3.70
  10   4  -8    2.00    3.30
  10   4  -8    2.60    3.10
 -10  -4   8    2.80    2.30
 -10  -4   8    0.20    2.90
  10  -4  -8   -0.20    3.40
  10   4  -7    3.10    3.30
  10   4  -7    1.30    2.60
  10   4  -7    4.50    4.30
 -10  -4   7    6.80    3.30
 -10  -4   7    3.10    2.60
  10  -4  -7    7.30    3.90
  10   4  -6   55.49    8.80
  10   4  -6   59.79    9.70
 -10  -4   6   51.89    8.40
 -10  -4   6   43.10    7.50
  10  -4  -6   42.80    8.50
  10  -4  -6   54.29    7.20
  10   4  -5   64.19   10.00
  10   4  -5   55.89   10.20
  10   4  -5   82.49   10.10
  10  -4  -5   70.19   10.40
  10  -4  -5   62.29    8.60
 -10  -4   5   63.29    9.80
 -10  -4   5   56.99    9.10
  10   4  -4    3.70    3.00
  10   4  -4    2.30    2.80
  10   4  -4    4.20    3.10
 -10   4   4    5.10    2.00
 -10  -4   4    6.20    3.20
 -10  -4   4    7.20    2.10
  10  -4  -4    7.70    3.30
 -10  -4   4    8.50    2.70
  10  -4  -4    5.00    2.10
  10   4  -3   20.20    5.20
  10   4  -3   25.50    5.70
  10   4  -3   20.60    4.80
 -10   4   3   24.10    4.00
  10  -4  -3   26.90    5.20
 -10  -4   3   21.30    5.00
 -10  -4   3   28.80    5.00
  10  -4  -3   23.10    4.20
  10   4  -2   20.40    4.30
  10   4  -2   17.80    4.60
 -10   4   2   14.50    3.10
 -10  -4   2   13.10    3.60
  10  -4  -2   14.90    3.20
 -10  -4   2   17.50    4.40
  10  -4  -2   11.60    3.60
  10   4  -1   36.70    7.70
 -10   4   1   51.69    6.90
  10   4  -1   43.70    7.50
 -10  -4   1   55.39    7.70
  10  -4  -1   45.60    7.00
  10  -4  -1   53.39    6.60
  10  -4  -1   39.20    6.70
 -10  -4   1   49.70    7.90
  10   4   0   54.89    8.10
  10   4   0   58.59    9.00
 -10   4   0   55.79    7.40
 -10  -4   0   39.40    7.70
  10  -4   0   43.00    6.60
  10  -4   0   52.09    7.60
 -10  -4   0   53.49    7.70
  10  -4   0   47.30    7.10
 -10   4  -1    2.80    2.20
  10   4   1    0.80    2.20
  10   4   1    1.20    3.00
 -10   4  -1    4.50    2.40
  10  -4   1    4.40    2.30
 -10  -4  -1    1.70    2.30
  10  -4   1    3.70    2.20
 -10  -4  -1    0.50    2.50
  10  -4   1    0.60    2.30
 -10   4  -2   77.99   10.50
  10   4   2   75.89   11.40
  10   4   2   65.79   10.60
 -10   4  -2   77.99   10.90
  10  -4   2   59.19   10.50
 -10  -4  -2   72.79   11.00
 -10  -4  -2   74.39   10.90
  10  -4   2   70.09   10.00
  10  -4   2  115.39   10.50
 -10   4  -3   44.10    6.40
 -10   4  -3   31.50    5.80
  10   4   3   34.70    6.30
 -10   4  -3   33.90    6.30
  10   4   3   22.20    5.80
 -10  -4  -3   39.30    6.60
  10  -4   3   29.70    5.80
  10  -4   3   24.30    5.00
 -10  -4  -3   32.70    6.50
 -10   4  -4   63.69   10.80
  10   4   4   62.19   10.60
 -10   4  -4   72.19   11.00
 -10   4  -4  117.09   12.40
  10  -4   4   74.19   10.30
 -10  -4  -4   88.79   11.40
  10  -4   4   76.39   11.10
 -10  -4  -4   92.99   12.30
 -10   4  -5   68.39    9.90
  10   4   5   62.39    9.30
 -10   4  -5   38.30    8.70
 -10   4  -5   64.79   10.20
 -10  -4  -5   73.09   10.70
  10  -4   5   60.39    9.40
 -10  -4  -5   67.49    9.30
  10  -4   5   48.40    8.10
 -10   4  -6    5.00    4.30
 -10   4  -6   21.50    5.40
 -10   4  -6   12.00    4.60
  10   4   6    9.50    3.30
  10  -4   6   11.60    4.20
 -10  -4  -6   16.80    5.20
  10  -4   6    5.80    3.40
 -10   4  -7   11.30    5.30
  10   4   7   17.00    4.30
 -10   4  -7   28.20    6.50
 -10   4  -7   17.60    8.20
  10  -4   7   12.40    4.00
 -10  -4  -7   14.60    5.90
  10  -4   7   19.40    5.10
  10   4   8    1.20    2.50
 -10   4  -8   -0.50    4.60
 -10   4  -8   -0.90    4.20
 -10  -4  -8    7.40    3.20
 -10  -4  -8    4.50    4.60
  10  -4   8    0.20    2.60
 -10   4  -9   -1.30    4.50
  10   4   9    0.60    2.50
 -10   4  -9    3.90    4.70
  10  -4   9    0.50    2.30
 -10  -4  -9    2.70    4.80
 -10  -4  -9    3.30    2.80
 -10   4 -10   12.40    6.50
 -10   4 -10    5.60    5.40
  10  -4  10   -2.70    1.90
 -10  -4 -10   -2.00    4.70
 -10  -4 -10    6.90    3.70
  10   5 -14    5.50    5.30
  10   5 -14    3.10    6.00
  10  -5 -14   11.20    7.30
  10   5 -13   50.59   10.20
  10   5 -13   52.79   13.60
 -10  -5  13   61.59    8.90
  10  -5 -13   32.10   10.00
  10   5 -12   32.90   11.50
  10   5 -12   54.39   10.20
 -10  -5  12   48.50    7.70
  10  -5 -12   26.90    8.40
  10   5 -11   16.30    8.00
  10   5 -11   12.80    5.70
 -10  -5  11   13.00    4.40
  10  -5 -11   24.70    7.80
  10   5 -10  108.39   22.40
  10   5 -10  146.29   20.10
  10   5 -10  145.59   17.30
  10  -5 -10  152.88   20.70
 -10  -5  10  134.99   17.00
  10   5  -9   21.70    5.30
  10   5  -9   24.60    6.60
  10   5  -9   17.00    7.80
 -10  -5   9   23.40    5.10
  10  -5  -9   13.10    5.90
  10   5  -8    7.50    3.90
  10   5  -8    8.50    5.90
  10   5  -8   14.30    5.00
 -10  -5   8    7.20    3.70
  10  -5  -8   15.30    5.80
 -10  -5   8    7.00    3.40
  10   5  -7   13.70    4.50
  10   5  -7    4.60    3.40
  10   5  -7   10.90    4.50
 -10  -5   7   16.70    4.30
  10  -5  -7   13.90    4.90
 -10  -5   7   12.70    4.40
  10   5  -6    7.70    4.00
  10   5  -6    5.30    3.90
  10   5  -6    4.60    5.70
  10   5  -6    8.50    3.50
  10  -5  -6   14.30    4.70
 -10  -5   6   17.90    4.50
 -10  -5   6    5.90    3.10
  10   5  -5   61.39    9.70
  10   5  -5   57.39    8.80
  10   5  -5   43.20    8.90
 -10   5   5   53.19    7.20
  10  -5  -5   53.19    7.60
  10  -5  -5   59.99    9.60
 -10  -5   5   58.49    8.60
 -10  -5   5   46.70    8.40
  10   5  -4   -2.90    2.30
  10   5  -4    3.40    3.10
 -10   5   4    2.20    1.80
  10   5  -4    2.10    3.10
  10  -5  -4   -2.60    2.10
  10  -5  -4    0.60    1.60
 -10  -5   4    1.80    2.40
 -10  -5   4   -2.20    2.30
  10   5  -3    6.20    3.30
  10   5  -3   14.50    4.40
 -10   5   3   10.80    2.70
  10   5  -3   12.30    4.50
 -10  -5   3    5.40    3.20
 -10  -5   3    6.90    3.10
  10  -5  -3    9.40    2.50
  10  -5  -3   10.00    3.70
  10   5  -2    9.00    3.50
  10   5  -2   18.40    5.10
  10   5  -2    8.20    3.80
 -10   5   2   12.10    2.90
 -10  -5   2    8.90    3.50
  10  -5  -2    9.30    2.90
 -10  -5   2   13.80    3.60
  10  -5  -2   11.30    3.50
  10   5  -1    4.70    3.40
  10   5  -1    9.00    3.20
 -10   5   1    4.50    2.20
  10  -5  -1    2.00    2.10
  10  -5  -1    9.40    2.80
  10  -5  -1   11.70    3.20
 -10  -5   1    8.60    3.30
 -10  -5   1    1.50    2.60
  10   5   0   34.80    6.90
 -10   5   0   23.70    5.10
 -10   5   0   30.10    6.80
  10   5   0   29.90    5.90
 -10  -5   0   36.80    6.60
 -10  -5   0   43.40    6.50
  10  -5   0   39.40    5.80
  10  -5   0   29.40    5.50
  10  -5   0   31.30    5.10
  10   5   1   19.40    4.90
 -10   5  -1   20.90    4.40
 -10   5  -1   25.70    4.80
  10   5   1   36.00    6.80
  10  -5   1   22.30    4.40
  10  -5   1   27.30    4.80
 -10  -5  -1   19.10    5.10
  10  -5   1   22.70    4.80
  10   5   2    4.50    3.30
 -10   5  -2    8.90    3.10
 -10   5  -2    5.60    2.90
  10   5   2    2.90    2.90
  10  -5   2    6.80    3.30
  10  -5   2    5.50    2.90
  10  -5   2    6.90    3.10
 -10  -5  -2   10.90    3.80
 -10   5  -3    3.40    2.90
  10   5   3    2.50    2.50
  10   5   3    2.70    3.50
 -10   5  -3    3.40    2.80
  10  -5   3    1.60    2.80
  10  -5   3   -0.40    2.20
 -10  -5  -3    0.50    2.70
  10   5   4    4.40    3.00
 -10   5  -4   -0.50    2.50
 -10   5  -4    3.20    3.10
 -10   5  -4    3.60    3.10
  10  -5   4   10.60    3.00
 -10  -5  -4    3.20    3.20
 -10  -5  -4    7.00    3.70
  10  -5   4   -0.20    2.90
 -10   5  -5    1.50    3.70
  10   5   5   -3.10    2.20
 -10   5  -5    0.10    3.10
 -10   5  -5    1.70    3.30
 -10  -5  -5    2.80    3.60
  10  -5   5   -2.60    2.20
  10  -5   5    0.40    2.90
 -10   5  -6   -4.00    3.40
  10   5   6    2.00    2.70
 -10   5  -6   -0.10    3.30
 -10   5  -6   -1.60    3.20
 -10  -5  -6   -0.50    3.70
  10  -5   6   -1.20    2.40
  10  -5   6    3.40    3.70
  10   5   7    5.40    3.40
 -10   5  -7   20.10    5.40
 -10   5  -7   19.80    6.10
 -10  -5  -7   22.20    6.20
  10  -5   7   11.90    3.80
  10  -5   7    7.40    4.30
 -10   5  -8    0.70    3.90
  10   5   8    7.20    3.40
 -10   5  -8    3.10    4.50
  10  -5   8    0.80    3.80
  10  -5   8    2.40    3.20
 -10  -5  -8    8.60    5.40
 -10   5  -9   -0.70    4.60
  10   5   9   -2.20    2.40
 -10   5  -9   -7.10    4.10
 -10  -5  -9    9.70    5.80
  10  -5   9   -0.20    2.70
 -10   5 -10    1.60    5.20
 -10   5 -10    7.30    5.90
 -10  -5 -10   -4.30    4.90
  10  -5  10   -4.50    2.40
  10   6 -13   -1.70    4.60
  10   6 -13    8.30    7.20
  10  -6 -13    2.20    6.60
 -10  -6  13   -4.80    3.30
  10   6 -12    5.10    4.80
  10   6 -12    2.70    6.10
  10  -6 -12   -4.30    5.60
 -10  -6  12   -3.50    3.00
  10   6 -11    3.50    4.60
  10   6 -11    3.70    6.50
 -10  -6  11    3.00    3.80
  10  -6 -11    8.50    6.20
  10   6 -10   52.99   10.90
  10   6 -10   62.49    9.70
  10   6 -10   42.50   13.20
 -10  -6  10   79.69   10.40
  10  -6 -10   57.89   11.40
  10   6  -9   75.09   12.70
  10   6  -9  103.09   14.40
  10   6  -9   58.39   15.30
  10   6  -9   98.79   12.70
 -10  -6   9   87.19   12.60
  10  -6  -9   70.79   12.80
 -10  -6   9   82.89   11.70
  10   6  -8   52.19    8.60
  10   6  -8   28.80   10.10
  10   6  -8   34.60    7.40
  10   6  -8   46.50    8.70
  10  -6  -8   36.60    8.60
 -10  -6   8   34.00    7.40
 -10  -6   8   42.50    7.30
  10   6  -7    3.20    3.70
  10   6  -7   -0.20    3.00
  10   6  -7    2.60    4.30
 -10  -6   7    4.70    3.80
 -10  -6   7    2.50    2.90
  10  -6  -7    5.30    4.50
  10   6  -6    9.40    4.80
  10   6  -6    1.60    3.20
 -10   6   6   10.20    2.50
  10   6  -6   15.70    5.20
  10   6  -6    3.50    3.90
 -10  -6   6   10.60    4.30
 -10  -6   6   15.40    4.30
  10  -6  -6    0.80    3.50
  10   6  -5    7.60    4.00
  10   6  -5    0.90    3.10
  10   6  -5    0.10    3.40
 -10   6   5    4.70    2.20
  10  -6  -5    5.20    3.80
  10  -6  -5    4.80    2.20
 -10  -6   5    2.90    2.70
 -10  -6   5   10.50    3.90
  10   6  -4   25.90    6.30
  10   6  -4   33.90    6.50
  10   6  -4   28.80    6.40
 -10   6   4   21.60    4.40
  10  -6  -4   36.90    6.90
 -10  -6   4   35.60    6.10
  10  -6  -4   29.30    4.80
 -10  -6   4   19.90    5.80
  10   6  -3   94.89   13.00
  10   6  -3   95.49   13.20
 -10   6   3   81.89   10.60
  10   6  -3   74.49   11.90
 -10  -6   3   86.29   11.80
  10  -6  -3   77.59   10.70
 -10  -6   3   78.09   12.10
  10  -6  -3   69.49   11.70
  10   6  -2   15.30    5.20
  10   6  -2   14.60    4.70
 -10   6   2   10.70    3.20
  10   6  -2   18.40    4.90
  10  -6  -2   10.90    4.00
  10  -6  -2   18.30    3.80
 -10  -6   2   17.70    5.10
 -10  -6   2   18.20    4.50
  10   6  -1   -0.60    2.60
  10   6  -1    5.90    3.80
  10   6  -1    2.40    2.90
 -10   6   1    3.60    2.00
 -10  -6   1   -1.60    2.90
 -10  -6   1   -1.40    2.40
  10  -6  -1   -2.60    2.20
  10  -6  -1   -2.00    2.10
  10   6   0   45.00    8.10
  10   6   0   34.90    6.70
 -10   6   0   35.80    5.60
 -10  -6   0   33.30    6.60
  10  -6   0   34.30    6.10
  10  -6   0   23.00    5.10
  10  -6   0   39.20    6.50
  10   6   1   -0.30    2.70
  10   6   1    6.90    3.90
 -10   6  -1    2.50    2.30
 -10   6  -1   -2.80    2.00
 -10  -6  -1    2.30    2.90
  10  -6   1    6.40    3.10
  10  -6   1   -3.30    2.00
  10  -6   1   -3.20    2.30
 -10   6  -2  126.69   16.40
  10   6   2  113.09   17.50
 -10   6  -2  127.39   16.50
  10   6   2  112.39   16.90
  10  -6   2  121.99   15.50
 -10  -6  -2  116.99   16.90
  10  -6   2  130.19   16.10
  10  -6   2  162.28   16.20
 -10   6  -3    2.30    2.80
 -10   6  -3    6.10    3.40
  10   6   3    6.20    3.20
  10  -6   3    6.40    2.90
  10  -6   3    8.40    3.60
 -10  -6  -3    4.70    3.40
  10  -6   3    5.90    3.50
  10   6   4   24.70    6.20
 -10   6  -4   52.29    7.80
 -10   6  -4   32.60    6.80
 -10   6  -4   30.40    6.40
 -10  -6  -4   39.70    6.90
  10  -6   4   42.70    6.40
  10  -6   4   37.30    6.80
  10   6   5   71.59   10.20
 -10   6  -5   68.79   10.60
 -10   6  -5   56.39   10.00
  10  -6   5   71.09   10.50
 -10  -6  -5   70.49   11.10
  10  -6   5   62.19    9.40
 -10   6  -6    6.60    4.20
 -10   6  -6   -7.60    3.00
  10   6   6    3.00    2.80
 -10  -6  -6    0.20    3.70
  10  -6   6   -1.70    3.10
  10  -6   6    0.50    2.70
 -10   6  -7    9.50    5.10
 -10   6  -7   13.10    5.00
  10   6   7    3.40    3.10
 -10  -6  -7    5.20    4.80
  10  -6   7    3.70    3.90
  10  -6   7   10.80    3.60
 -10   6  -8    3.30    4.40
  10   6   8    2.60    2.90
 -10   6  -8    7.80    4.80
 -10  -6  -8   -2.90    4.50
  10  -6   8   -4.40    3.70
  10  -6   8   -2.30    2.70
 -10   6  -9    7.50    5.30
 -10   6  -9    2.30    5.30
 -10  -6  -9    7.80    6.10
  10  -6   9   -1.80    3.30
  10  -7 -12    1.90    6.20
  10   7 -11   -1.10    5.40
  10  -7 -11   -4.10    6.10
 -10  -7  11    1.30    3.50
  10   7 -10    1.00    5.60
  10   7 -10    4.30    4.40
  10   7 -10    6.80    4.30
 -10  -7  10    5.20    3.80
  10  -7 -10    6.30    6.30
  10   7  -9   -1.20    3.60
  10   7  -9   -0.80    4.80
  10   7  -9   -0.70    4.10
 -10  -7   9   -0.20    2.90
  10  -7  -9   -4.40    4.60
 -10  -7   9    5.60    3.90
  10   7  -8    6.00    4.50
  10   7  -8    0.20    4.80
  10   7  -8    4.30    4.00
  10  -7  -8    1.00    4.60
 -10  -7   8    4.70    4.20
 -10  -7   8    3.30    3.20
  10   7  -7   -1.00    3.60
  10   7  -7   -0.80    3.60
 -10  -7   7    4.60    4.10
  10  -7  -7   -7.30    3.30
 -10  -7   7    4.80    3.20
 -10   7   6   -1.50    1.80
  10   7  -6    0.20    4.00
  10   7  -6    4.40    4.40
  10   7  -6    1.00    3.60
  10  -7  -6   -0.30    4.30
 -10  -7   6   -0.70    3.00
 -10  -7   6   -3.30    2.80
 -10   7   5    1.80    2.10
  10   7  -5   -1.30    3.70
  10   7  -5   -3.00    3.00
 -10  -7   5    4.70    3.40
 -10  -7   5    3.60    3.80
  10  -7  -5   -0.60    3.60
 -10   7   4   -2.30    1.90
  10   7  -4   -3.30    2.70
  10   7  -4    6.70    3.90
 -10  -7   4   -0.70    2.70
  10  -7  -4    0.80    2.10
  10  -7  -4   -4.70    2.70
 -10  -7   4    4.70    3.90
  10   7  -3    8.00    4.50
 -10   7   3    4.20    2.50
  10   7  -3    4.10    3.70
  10  -7  -3   10.70    4.50
 -10  -7   3    4.00    3.30
  10  -7  -3    7.00    2.70
 -10  -7   3    6.30    3.70
 -10   7   2    1.40    2.10
  10   7  -2    0.60    3.30
  10   7  -2    2.20    3.70
  10  -7  -2    0.70    3.40
 -10  -7   2    6.80    4.20
  10  -7  -2    9.50    2.80
 -10  -7   2    2.50    3.40
  10   7  -1    3.20    3.50
 -10   7   1    1.30    2.20
  10   7  -1   -4.20    3.40
  10  -7  -1    2.30    2.80
  10  -7  -1   -1.00    3.10
 -10  -7   1    4.40    3.70
  10   7   0  132.69   21.10
  10   7   0  156.28   21.10
 -10   7   0  165.58   19.30
  10  -7   0  159.98   19.80
 -10  -7   0  173.48   20.60
  10  -7   0  166.58   19.70
 -10   7  -1  388.86   42.70
  10   7   1  329.17   43.20
  10   7   1  376.76   44.00
 -10   7  -1  367.66   42.60
  10  -7   1  366.86   42.80
  10  -7   1  442.06   43.10
  10  -7   1  337.27   42.40
 -10  -7  -1  401.46   43.60
  10   7   2  109.89   16.80
 -10   7  -2  132.69   16.60
 -10   7  -2  117.99   16.30
  10   7   2  118.89   18.10
  10  -7   2  151.28   16.40
  10  -7   2  128.29   15.50
  10  -7   2  112.09   16.20
 -10  -7  -2  130.79   17.00
  10   7   3    0.00    2.90
 -10   7  -3   -3.50    2.50
 -10  -7  -3    2.30    3.30
  10  -7   3    3.00    3.30
  10  -7   3   -0.40    2.60
  10  -7   3   -3.90    2.60
  10   7   4    4.60    3.60
 -10   7  -4    3.20    3.40
 -10   7  -4    1.20    3.40
  10  -7   4    5.80    3.50
  10  -7   4    0.70    3.30
  10  -7   4    3.00    2.60
  10   7   5   -4.70    2.20
 -10   7  -5    7.20    4.00
 -10   7  -5    3.80    3.40
  10  -7   5   -1.50    2.90
  10  -7   5    4.40    2.80
 -10   7  -6    1.90    3.90
 -10   7  -6   -1.10    3.40
  10   7   6   -0.60    2.70
  10  -7   6    0.30    2.60
  10  -7   6   -2.60    3.30
 -10   7  -7   10.70    5.00
 -10   7  -7    3.90    4.70
  10   7   7   -0.40    3.10
  10  -7   7    3.10    3.20
  10  -7   7    8.50    4.60
 -10  -7  -7    6.40    5.20
 -10   7  -8    6.30    5.20
  10   7   8    6.50    3.50
 -10   7  -8   -0.60    4.40
  10  -7   8   -4.90    4.10
  10  -7   8   -1.90    3.20
  10   8 -10    3.90    6.70
  10   8 -10    8.10    5.00
  10   8 -10    7.90    5.40
 -10  -8  10    4.30    5.20
 -10  -8  10    4.00    4.50
  10  -8 -10    7.30    6.90
  10   8  -9   82.59   13.80
  10   8  -9  116.29   14.10
  10   8  -9   52.59   15.50
 -10  -8   9  102.49   13.70
  10   8  -8   18.80    6.10
  10   8  -8   11.20    7.50
  10   8  -8   11.10    5.50
  10  -8  -8   22.90    7.40
 -10  -8   8   11.10    4.40
 -10  -8   8   11.10    5.50
 -10   8   7   -2.80    2.20
  10   8  -7    1.60    4.20
  10   8  -7    3.10    4.50
 -10  -8   7    4.20    4.20
 -10  -8   7   -6.10    2.80
  10  -8  -7    2.80    5.50
 -10   8   6   -3.50    1.70
  10   8  -6    4.20    4.10
  10   8  -6   -3.20    4.10
 -10  -8   6    1.70    3.30
 -10  -8   6    2.20    3.60
  10  -8  -6   -0.80    4.60
  10   8  -5   16.70    6.20
 -10   8   5   27.60    5.10
  10   8  -5   33.40    7.20
  10  -8  -5   35.30    8.10
 -10  -8   5   29.10    7.00
 -10  -8   5   26.90    6.30
  10   8  -4   43.00    8.00
  10   8  -4   43.30    7.50
 -10   8   4   21.70    4.90
  10  -8  -4   20.50    7.00
 -10  -8   4   24.00    5.90
 -10  -8   4   27.90    6.90
 -10   8   3    2.40    2.50
  10   8  -3    0.60    3.70
  10   8  -3   -3.50    3.50
 -10  -8   3   -3.70    3.20
  10  -8  -3    3.10    4.20
  10  -8  -3    1.60    2.30
 -10  -8   3   -2.20    3.50
 -10   8   2    0.10    2.40
  10   8  -2    4.80    3.90
  10   8  -2   -0.60    3.40
 -10  -8   2   -5.60    3.20
  10  -8  -2    6.10    3.00
  10  -8  -2    2.70    4.00
 -10   8   1   -1.90    2.20
  10   8  -1    2.20    4.20
  10   8  -1   -2.60    3.10
  10  -8  -1   -5.40    3.30
 -10  -8   1    1.80    3.60
  10  -8  -1    3.00    3.00
  10   8   0   52.39    8.80
 -10   8   0   40.50    6.80
  10   8   0   33.90    8.10
  10  -8   0   45.00    7.40
  10  -8   0   46.50    8.10
 -10  -8   0   26.20    7.30
  10   8   1    9.90    4.60
 -10   8  -1    7.20    3.40
  10   8   1    4.00    4.20
  10  -8   1    2.90    3.90
  10  -8   1    5.50    4.00
 -10  -8  -1    3.90    3.70
 -10   8  -2    5.30    3.50
  10   8   2    0.80    3.40
  10  -8   2   11.40    4.40
 -10  -8  -2    0.30    3.70
  10  -8   2    8.90    4.10
 -10   8  -3    3.10    3.40
  10   8   3    0.90    3.20
  10  -8   3   -0.40    3.50
  10  -8   3    3.30    3.70
  10  -8   3    2.20    2.90
 -10   8  -4    5.80    3.60
 -10   8  -4    5.00    3.70
  10   8   4    2.00    3.40
  10  -8   4   11.20    4.40
  10  -8   4    7.50    4.00
  10  -8   4    1.40    2.90
 -10   8  -5    1.40    3.60
 -10   8  -5    2.90    4.10
  10   8   5    1.00    3.10
  10  -8   5    4.90    4.10
  10  -8   5    0.80    3.90
  10  -8   5    1.40    2.90
 -10   8  -6   33.90    7.50
  10   8   6   20.00    5.60
 -10   8  -6   25.10    6.80
  10  -8   6   23.50    5.30
  10  -8   6   36.50    7.10
  10  -8   6   25.60    6.60
  10   9  -8   44.00    8.80
  10   9  -8   25.70   10.80
  10   9  -8   33.50    8.50
 -10  -9   8   38.70    8.00
 -10  -9   8   32.90    7.30
  10  -9  -8   32.90    9.40
  10   9  -7    0.20    5.00
 -10   9   7   -3.30    2.20
  10   9  -7   -8.90    4.20
 -10  -9   7   -1.50    3.70
  10  -9  -7   -2.10    5.80
 -10  -9   7   -2.10    3.60
  10   9  -6    3.90    5.00
  10   9  -6   -3.60    4.20
 -10   9   6    1.50    2.50
 -10  -9   6    0.30    3.40
 -10  -9   6   -3.60    3.80
  10  -9  -6    7.00    6.30
  10   9  -5   -3.60    3.90
  10   9  -5   -5.50    4.10
  10   9  -5   11.80    5.30
 -10   9   5    1.90    2.70
  10  -9  -5    6.50    5.60
 -10  -9   5    6.80    4.30
 -10  -9   5    1.90    4.00
  10   9  -4   -0.90    4.00
  10   9  -4   -0.60    3.90
 -10   9   4    4.20    2.70
  10  -9  -4    2.20    5.10
 -10  -9   4    1.80    4.10
 -10  -9   4    3.80    4.80
 -10   9   3   13.10    3.70
  10   9  -3   15.50    6.30
  10   9  -3    8.10    4.90
  10  -9  -3   13.10    5.70
 -10  -9   3   19.10    5.70
 -10   9   2   -1.30    2.60
  10   9  -2    3.20    4.50
  10   9  -2    3.80    3.80
  10  -9  -2    2.50    3.00
 -10  -9   2    3.50    3.90
  10  -9  -2    4.40    4.70
 -10   9   1    0.60    2.50
  10   9  -1    2.90    4.20
  10   9  -1   -0.10    3.70
 -10  -9   1    1.80    3.90
  10  -9  -1   -0.60    4.10
  10  -9  -1   -1.20    2.70
  10   9   0    1.00    4.40
  10   9   0    3.40    3.90
 -10   9   0    5.70    3.10
  10  -9   0   -1.30    3.20
 -10  -9   0    2.10    3.90
  10  -9   0   -1.30    3.60
 -10   9  -1   21.40    4.90
  10   9   1   16.00    5.40
  10  -9   1   14.00    5.30
  10  -9   1   12.00    4.90
 -10  -9  -1   22.30    5.70
 -10   9  -2    3.10    3.50
  10   9   2    1.30    4.10
 -10  -9  -2    1.20    4.40
  10  -9   2   -1.60    3.40
  10  -9   2    0.70    3.80
 -10   9  -3   -4.00    3.30
  10   9   3   -1.40    3.50
  10  -9   3   -5.60    2.90
  10  -9   3   -3.40    3.70
 -10   9  -4   -1.50    4.20
 -10   9  -4   -1.20    3.80
  10   9   4    0.80    3.50
  10  -9   4    3.60    3.90
  10  -9   4   -6.00    3.60
  10 -10  -4   -3.80    5.70
  10  10  -3    9.70    5.50
 -10  10   3    7.00    3.30
  10  10  -3    3.70    5.50
 -10 -10   3    2.90    4.20
  10 -10  -3    7.80    6.40
 -10  10   2    5.00    3.10
  10  10  -2   -7.30    3.80
  10  10  -2    3.80    5.10
  10 -10  -2   -1.80    4.90
 -10 -10   2    4.50    4.60
 -10  10   1   -0.90    3.20
  10  10  -1   -7.20    5.00
  10  10  -1    2.70    4.70
  10 -10  -1    2.70    5.10
 -10 -10   1    0.80    4.30
  10 -10  -1    4.20    3.40
 -10  10   0   26.00    5.60
  11   0 -15  -10.70    4.80
  11   0 -15    4.20    5.60
  11   0 -14   -2.40    4.50
  11   0 -14    3.60    6.00
  11   0 -13    4.30    4.90
  11   0 -13    1.20    4.80
  11   0 -12    5.20    4.80
  11   0 -12   -5.50    3.50
  11   0 -11   -5.40    3.50
  11   0 -11    0.80    4.00
 -11   0  11    1.20    2.20
 -11   0  10   12.50    3.60
  11   0 -10    7.00    4.50
  11   0 -10   15.70    5.20
  11   0  -9   -3.50    2.90
  11   0  -9    3.70    3.80
 -11   0   9    2.90    1.90
  11   0  -8  574.74   63.09
  11   0  -8  519.25   64.29
  11   0  -8  618.84   64.89
  11   0  -7    1.70    3.10
  11   0  -7   -0.40    1.70
  11   0  -7   -0.60    2.80
  11   0  -6   15.40    3.60
  11   0  -6   14.10    4.10
  11   0  -6    5.10    3.40
  11   0  -5   -2.50    2.20
  11   0  -5    2.40    2.70
  11   0  -5    1.40    2.00
 -11   0   5    0.10    1.50
  11   0  -4    6.00    2.70
  11   0  -4    2.90    2.30
  11   0  -4    0.40    2.20
  11   0  -4    6.90    2.60
 -11   0   4    3.40    1.70
  11   0  -3   -0.20    1.80
  11   0  -3   -1.40    1.80
 -11   0   3    0.30    1.40
  11   0  -3    2.20    2.10
  11   0  -2  298.67   30.10
  11   0  -2  233.48   30.10
 -11   0   2  300.67   29.90
  11   0  -2  225.48   29.70
  11   0  -1    0.30    1.60
 -11   0   1    0.10    2.00
  11   0  -1    1.80    2.30
  11   0   0   17.80    4.00
 -11   0   0   22.70    4.50
 -11   0   0   31.70    5.30
  11   0   0   24.70    4.90
  11   0   1   -1.10    1.70
 -11   0  -1   -0.10    2.40
 -11   0  -1    0.70    2.20
  11   0   1   -1.40    1.40
 -11   0  -2  342.77   41.20
  11   0   2  362.56   40.60
  11   0   2  347.57   41.00
 -11   0  -2  384.06   41.20
 -11   0  -3   -2.00    2.90
 -11   0  -3    1.30    3.20
  11   0   3    0.70    2.30
  11   0   3    0.90    2.00
  11   0   4   10.90    3.90
 -11   0  -4   18.60    5.40
  11   0   4   10.00    3.30
 -11   0  -4   13.80    4.90
  11   0   5   -1.80    1.90
  11   0   5    2.30    2.90
 -11   0  -5   -1.90    3.10
 -11   0  -5   -0.40    3.30
  11   0   6    5.40    2.90
 -11   0  -6    6.80    5.50
 -11   0  -6   22.80    6.60
 -11   0  -7    4.20    5.10
  11   0   7    1.90    2.50
 -11   0  -7   -1.10    3.60
 -11   0  -8   40.60    9.90
  11   0   8   44.50    7.50
  11   0   9   -2.50    2.10
 -11   0  -9    7.60    5.90
  11   0  10   -0.60    2.70
 -11   0 -10   -3.90    5.60
  11   0  11   -1.40    3.00
 -11   0 -11   -8.70    6.50
  11   1 -15   -5.80    5.30
  11   1 -15   -5.00    4.70
  11  -1 -15   -6.80    4.40
  11  -1 -15   -6.50    5.60
  11   1 -14    3.50    5.10
  11   1 -14   -2.90    4.10
  11  -1 -14    0.00    5.30
  11  -1 -14    6.20    5.50
  11   1 -13   32.50    8.10
  11   1 -13   22.80    6.60
  11  -1 -13   27.90    8.30
  11  -1 -13   15.70    6.50
  11   1 -12    1.30    4.20
  11   1 -12    5.40    4.30
  11  -1 -12    3.80    4.40
 -11  -1  12    1.40    2.60
  11  -1 -12    5.10    5.10
 -11   1  11    1.80    2.30
  11   1 -11   -2.10    3.60
  11   1 -11    3.10    4.40
 -11  -1  11    0.30    2.20
  11  -1 -11    1.40    4.50
  11  -1 -11    1.40    3.80
  11   1 -10    3.80    4.00
 -11   1  10    1.70    2.00
  11   1 -10   -5.20    2.90
 -11  -1  10   -0.80    2.00
  11  -1 -10    2.30    3.70
  11  -1 -10    3.00    4.60
  11   1  -9    3.70    3.60
  11   1  -9    1.40    3.40
 -11  -1   9    1.00    2.10
  11  -1  -9    2.30    4.00
  11  -1  -9    7.60    4.20
  11   1  -8  114.19   15.90
  11   1  -8  121.79   14.30
  11   1  -8  105.19   16.50
 -11  -1   8  104.49   13.90
  11  -1  -8  114.09   16.60
  11  -1  -8  145.09   17.60
  11   1  -7  225.08   27.00
  11   1  -7  233.58   26.50
  11   1  -7  237.68   27.50
  11  -1  -7  206.98   27.10
  11  -1  -7  257.57   26.20
  11  -1  -7  211.58   27.20
 -11  -1   7  210.38   26.00
  11   1  -6    3.90    2.50
  11   1  -6    0.50    2.70
  11   1  -6    0.70    2.70
  11  -1  -6    8.80    3.80
  11  -1  -6    2.90    2.90
  11  -1  -6    3.90    2.30
  11   1  -5    6.80    3.00
  11   1  -5    6.30    2.90
  11   1  -5    9.40    3.90
 -11   1   5    4.80    2.10
  11  -1  -5    1.40    2.70
 -11  -1   5    9.90    2.20
  11  -1  -5    4.70    2.30
  11  -1  -5    7.80    3.40
 -11   1   4   58.29    7.70
  11   1  -4   60.79    9.50
  11   1  -4   55.19    8.80
  11   1  -4   60.69    9.00
  11   1  -4   72.49    9.00
  11  -1  -4   46.20    8.70
 -11  -1   4   64.39    7.80
  11  -1  -4   54.79    8.50
  11  -1  -4   59.99    9.20
 -11   1   3   81.29    9.20
  11   1  -3   71.29   10.60
  11   1  -3   78.39   10.40
  11  -1  -3   74.49   10.40
  11  -1  -3   84.69   10.70
  11  -1  -3   67.69    9.80
  11  -1  -3   60.19   10.30
  11   1  -2   10.20    3.00
  11   1  -2    5.90    3.00
  11  -1  -2    7.00    2.40
  11  -1  -2    5.90    2.50
  11  -1  -2    9.40    2.90
  11   1  -1   -1.00    1.80
 -11   1   1    1.10    2.00
 -11   1   1   -0.10    1.90
  11   1  -1    3.30    2.40
 -11  -1   1    1.60    3.90
  11  -1  -1    7.20    2.50
  11  -1  -1    3.60    2.10
  11  -1  -1    1.40    1.60
 -11   1   0    2.40    2.50
  11   1   0    6.80    2.90
  11   1   0    6.80    2.30
 -11   1   0    2.10    2.10
  11  -1   0    5.30    2.10
  11  -1   0    1.00    1.70
 -11  -1   0    1.70    2.30
  11  -1   0   -1.20    1.70
 -11   1  -1   28.20    5.40
  11   1   1   28.80    5.00
 -11   1  -1   32.60    5.80
  11   1   1   23.60    5.10
  11  -1   1   27.20    4.50
  11  -1   1   25.60    5.10
 -11  -1  -1   38.20    6.40
  11  -1   1   20.50    4.50
  11   1   2   82.39   12.30
  11   1   2   98.49   13.50
 -11   1  -2  111.69   13.90
 -11   1  -2  102.29   13.40
 -11  -1  -2  109.89   14.10
  11  -1   2   91.99   11.90
  11  -1   2   82.69   12.50
  11  -1   2   98.69   11.90
  11   1   3    4.10    2.50
 -11   1  -3    4.30    3.50
 -11   1  -3    1.80    3.20
  11   1   3    3.40    2.90
  11  -1   3    1.80    2.40
 -11  -1  -3    4.60    4.00
  11  -1   3    3.30    2.10
 -11   1  -4    7.40    4.10
  11   1   4    6.90    2.90
  11   1   4    0.80    2.80
 -11   1  -4    3.90    4.10
  11  -1   4    2.30    2.60
  11  -1   4    4.60    2.30
 -11  -1  -4    8.80    4.40
  11   1   5   -0.20    2.90
 -11   1  -5    5.10    3.90
 -11   1  -5    4.60    4.30
 -11   1  -5    3.90    3.60
  11   1   5   -3.40    1.80
 -11  -1  -5    3.20    4.00
  11  -1   5    0.70    1.90
  11  -1   5    1.10    2.40
 -11   1  -6   68.89   11.00
  11   1   6   38.70    7.00
 -11   1  -6   44.40    8.90
 -11   1  -6   55.49    8.60
  11  -1   6   28.30    6.90
 -11  -1  -6   45.60    9.40
  11  -1   6   43.50    6.90
 -11   1  -7   91.09   13.80
 -11   1  -7   95.29   12.60
  11   1   7   71.89   10.90
 -11   1  -7   73.99   12.40
 -11  -1  -7   75.09   13.50
  11  -1   7   63.69   10.30
  11   1   8   40.50    7.40
 -11  -1  -8   56.69   11.20
  11  -1   8   46.20    7.60
  11   1   9    5.70    3.10
 -11   1  -9   18.20    7.20
  11  -1   9   11.90    3.70
 -11  -1  -9   10.60    6.40
  11   1  10    2.50    3.00
 -11   1 -10    5.30    6.60
  11  -1  10    0.00    2.40
 -11  -1 -10    4.80    6.40
 -11   1 -11   -7.00    6.00
  11   1  11    3.90    3.30
 -11  -1 -11   -3.00    6.70
  11  -1  11   -2.70    2.60
  11   2 -15   -1.80    6.50
  11   2 -15   -1.30    4.90
  11  -2 -15   -0.10    7.30
  11  -2 -15   -5.10    5.50
  11   2 -14    8.40    5.10
  11   2 -14   -1.80    5.60
  11  -2 -14   11.00    6.80
  11  -2 -14    1.80    5.60
  11   2 -13    5.30    5.70
  11   2 -13   14.20    5.70
  11  -2 -13    6.50    5.00
 -11  -2  13   14.50    3.90
  11  -2 -13    1.30    5.40
  11   2 -12   66.79   11.50
  11   2 -12   73.59   13.10
 -11  -2  12   83.19   10.50
  11  -2 -12   70.19   13.00
  11  -2 -12   44.00   11.00
  11   2 -11   23.10    6.20
  11   2 -11   33.30    7.70
 -11  -2  11   13.00    3.90
  11  -2 -11   19.40    6.30
  11  -2 -11    9.90    5.30
  11   2 -10    7.30    4.30
  11   2 -10   -0.70    4.00
  11  -2 -10    8.30    4.50
  11  -2 -10   -1.00    3.40
 -11  -2  10    0.90    2.10
  11   2  -9   16.40    5.50
  11   2  -9   22.70    5.50
  11   2  -9   13.10    3.80
  11  -2  -9   13.40    5.10
 -11  -2   9   12.00    3.50
  11  -2  -9   28.80    6.70
  11   2  -8   47.30    7.30
  11   2  -8   51.49    8.30
  11   2  -8   31.60    8.00
 -11  -2   8   38.60    6.70
  11  -2  -8   41.00    8.50
  11  -2  -8   48.90    8.90
  11   2  -7  111.39   16.20
  11   2  -7  124.89   14.60
  11   2  -7  116.29   15.40
  11  -2  -7  103.39   13.70
  11  -2  -7  106.89   16.10
 -11  -2   7  111.29   14.00
  11  -2  -7  118.09   16.20
 -11  -2   7  124.59   14.60
  11   2  -6   32.20    6.90
  11   2  -6   36.40    6.30
 -11  -2   6   22.20    5.00
  11  -2  -6   33.10    6.80
  11  -2  -6   39.80    7.10
 -11  -2   6   23.10    5.40
  11  -2  -6   46.20    6.00
  11   2  -5    3.60    2.50
  11   2  -5    9.40    4.20
  11   2  -5   13.70    5.00
  11  -2  -5    5.00    3.30
 -11  -2   5    4.40    2.20
 -11  -2   5    4.90    2.90
 -11  -2   5    4.90    1.90
  11  -2  -5    4.20    3.20
  11  -2  -5    3.90    2.30
  11   2  -4   12.10    4.00
  11   2  -4   18.00    3.90
 -11   2   4   10.10    2.80
  11   2  -4    8.80    4.20
  11  -2  -4   10.90    3.80
  11  -2  -4    6.60    2.80
  11  -2  -4    8.60    3.40
 -11  -2   4   13.10    3.30
 -11  -2   4   16.90    2.80
 -11   2   3   56.99    7.00
  11   2  -3   57.39    8.00
  11   2  -3   41.20    8.10
  11   2  -3   45.40    8.10
  11  -2  -3   45.20    7.30
  11  -2  -3   54.59    8.30
  11  -2  -3   44.60    7.80
  11  -2  -3   52.59    7.60
  11   2  -2   -1.40    2.10
  11   2  -2   -3.00    1.70
 -11   2   2    2.60    2.10
  11  -2  -2    1.50    2.00
  11  -2  -2   -1.80    1.40
  11  -2  -2   -0.70    1.60
 -11   2   1   16.40    3.40
  11   2  -1   10.00    3.20
  11   2  -1   14.30    4.00
  11  -2  -1   11.00    2.80
  11  -2  -1    8.40    3.00
  11  -2  -1   11.40    3.10
  11   2   0   10.50    3.60
 -11   2   0   18.10    3.80
  11   2   0    2.10    2.50
  11  -2   0    8.70    2.50
  11  -2   0   13.70    3.00
  11  -2   0    9.50    3.20
 -11   2  -1   15.40    4.00
 -11   2  -1   16.70    4.30
  11   2   1   17.40    4.00
  11   2   1   15.00    4.20
  11  -2   1   14.10    3.30
 -11  -2  -1   28.00    5.20
  11  -2   1   14.70    3.90
  11  -2   1   22.80    3.80
 -11   2  -2   31.70    5.80
 -11   2  -2   24.20    5.50
  11   2   2   14.90    4.30
  11   2   2   25.60    5.60
 -11  -2  -2   25.90    5.10
  11  -2   2   17.60    4.50
  11  -2   2   24.50    4.40
 -11  -2  -2   36.30    6.30
  11  -2   2   25.70    4.30
 -11   2  -3  203.28   23.40
  11   2   3  163.78   22.90
  11   2   3  178.68   22.60
 -11   2  -3  226.48   23.60
  11  -2   3  184.98   22.80
 -11  -2  -3  225.58   23.80
  11  -2   3  181.58   22.20
 -11   2  -4    9.00    4.00
 -11   2  -4    4.30    4.00
  11   2   4    5.20    2.80
  11   2   4    1.40    3.30
  11  -2   4    3.20    2.70
 -11  -2  -4   12.00    4.80
  11  -2   4    2.20    2.00
 -11   2  -5    0.80    3.30
  11   2   5    2.90    2.70
 -11   2  -5   -0.70    3.10
 -11   2  -5   -2.10    3.00
  11  -2   5    2.50    2.50
 -11  -2  -5   -0.80    2.70
  11  -2   5    1.00    2.10
 -11  -2  -5    2.10    4.00
  11   2   6   65.19   11.00
 -11   2  -6   90.59   13.20
 -11   2  -6   95.39   14.00
 -11   2  -6   89.39   12.50
 -11  -2  -6   97.09   12.30
  11  -2   6   75.89   11.60
 -11  -2  -6   79.19   13.70
  11  -2   6   58.29   10.40
 -11  -2  -6   89.99   10.30
  11   2   7  160.78   22.00
 -11   2  -7  198.48   24.10
 -11   2  -7  218.78   26.40
  11  -2   7  156.58   21.60
 -11  -2  -7  190.38   25.80
 -11  -2  -7  205.28   21.60
 -11   2  -8   22.90    7.50
 -11   2  -8   26.30    7.00
  11   2   8   16.70    5.10
 -11  -2  -8   30.60    8.20
 -11  -2  -8   34.40    5.50
  11  -2   8   20.30    4.70
  11   2   9   -1.70    2.60
 -11   2  -9    0.00    5.70
  11  -2   9   -1.80    2.10
 -11  -2  -9   -1.10    2.70
 -11  -2  -9    3.90    6.00
 -11   2 -10    9.60    6.70
  11   2  10   10.70    4.00
 -11  -2 -10   -0.80    6.00
 -11  -2 -10   18.50    4.30
  11  -2  10    8.00    3.40
  11   3 -14    2.90    5.90
  11   3 -14    4.10    5.10
 -11  -3  14    7.40    5.50
  11  -3 -14    3.40    6.70
  11   3 -13    7.70    5.30
  11   3 -13    5.80    5.00
 -11  -3  13    0.60    3.10
  11  -3 -13    8.80    6.50
  11   3 -12    0.00    4.10
  11   3 -12    2.70    4.20
  11  -3 -12    2.50    5.00
 -11  -3  12    2.00    2.70
  11   3 -11   -4.60    3.10
  11   3 -11    6.20    4.20
  11  -3 -11   -3.30    4.60
 -11  -3  11    4.00    2.80
  11  -3 -11   -2.50    3.90
  11   3 -10    1.30    3.70
  11   3 -10   -1.50    3.30
 -11  -3  10   -0.30    2.20
  11  -3 -10   -3.40    3.20
  11  -3 -10    3.80    4.20
  11   3  -9    0.80    3.70
  11   3  -9    3.60    2.90
  11   3  -9    7.30    4.00
 -11  -3   9    9.00    3.10
  11  -3  -9    7.70    4.20
  11  -3  -9    5.00    4.10
  11   3  -8   12.20    5.10
  11   3  -8   11.80    3.80
  11  -3  -8   13.80    5.00
 -11  -3   8    7.00    3.00
  11  -3  -8    0.20    3.60
  11   3  -7   45.60    8.50
  11   3  -7   31.90    6.70
 -11  -3   7   40.60    7.00
  11  -3  -7   39.70    7.70
 -11  -3   7   29.90    6.00
  11  -3  -7   37.90    7.60
  11   3  -6   14.10    4.70
  11   3  -6    4.00    3.00
  11  -3  -6   14.40    4.80
  11  -3  -6    9.80    2.90
 -11  -3   6    9.30    3.00
 -11  -3   6   12.70    4.00
  11  -3  -6    8.20    3.90
  11   3  -5    2.30    2.90
  11   3  -5    1.10    2.90
  11   3  -5    5.10    2.70
  11  -3  -5    0.20    1.80
  11  -3  -5    1.30    2.60
 -11  -3   5    0.70    1.90
  11  -3  -5   11.30    3.70
 -11  -3   5    5.40    2.80
  11   3  -4  144.79   17.30
  11   3  -4  157.48   17.00
  11   3  -4  114.39   17.80
  11  -3  -4  127.99   16.90
 -11  -3   4  154.18   17.20
  11  -3  -4  116.19   16.70
  11  -3  -4  159.18   16.60
 -11  -3   4  116.99   16.40
 -11   3   3  237.78   27.00
  11   3  -3  229.48   27.70
  11   3  -3  247.48   28.30
  11   3  -3  247.78   28.30
 -11   3   3  265.07   27.20
  11  -3  -3  228.28   27.70
  11  -3  -3  249.58   27.50
  11  -3  -3  208.38   27.50
 -11  -3   3  238.78   27.50
 -11  -3   3  226.48   27.90
  11   3  -2   55.49    8.50
 -11   3   2   67.49    8.20
  11   3  -2   54.09    9.00
  11  -3  -2   51.79    7.70
 -11  -3   2   52.09    8.70
  11  -3  -2   53.29    8.20
  11  -3  -2   56.99    8.80
  11  -3  -2   62.99    8.50
 -11  -3   2   50.99    8.10
  11   3  -1   44.90    7.80
 -11   3   1   49.30    7.40
  11   3  -1   49.40    8.50
  11  -3  -1   50.09    7.70
  11  -3  -1   49.60    7.10
 -11  -3   1   60.29    8.30
  11  -3  -1   51.79    7.60
 -11  -3   1   52.99    8.40
 -11   3   0    4.30    2.60
  11   3   0   13.70    3.90
  11   3   0    6.70    2.80
 -11  -3   0    8.10    2.90
  11  -3   0    4.40    2.10
  11  -3   0    4.50    2.60
 -11  -3   0   10.50    3.50
  11  -3   0    3.90    2.20
  11   3   1   15.80    4.70
  11   3   1    6.90    3.00
 -11   3  -1   16.50    4.10
 -11  -3  -1   14.80    3.90
  11  -3   1   16.10    3.30
  11  -3   1   17.80    3.60
  11  -3   1   12.50    3.70
 -11  -3  -1    9.80    4.10
  11   3   2   93.59   13.30
  11   3   2   88.79   13.70
 -11   3  -2  101.99   13.30
 -11   3  -2   75.99   12.70
 -11  -3  -2   94.39   13.50
  11  -3   2  108.99   13.60
 -11  -3  -2  102.29   13.60
  11  -3   2   86.39   11.80
  11  -3   2  116.79   12.20
 -11   3  -3  297.67   34.50
  11   3   3  246.58   34.00
  11   3   3  291.97   34.70
 -11   3  -3  298.47   34.50
  11  -3   3  291.97   33.70
 -11  -3  -3  313.07   34.70
 -11  -3  -3  301.47   34.80
  11  -3   3  343.67   34.70
  11   3   4   61.09    9.10
 -11   3  -4   47.50    9.70
  11   3   4   68.89   10.20
 -11   3  -4   57.99    9.70
 -11   3  -4   58.49    9.30
  11  -3   4   41.60    8.30
  11  -3   4   51.19    7.90
 -11  -3  -4   59.39    9.80
 -11  -3  -4   65.69    9.60
 -11   3  -5   25.30    6.60
 -11   3  -5   29.90    6.30
 -11   3  -5   27.70    6.20
  11   3   5   17.40    5.10
 -11  -3  -5   29.20    5.70
 -11  -3  -5   30.30    7.00
  11  -3   5   27.90    5.70
  11  -3   5   21.90    4.60
  11   3   6   -4.60    2.10
 -11   3  -6    2.20    4.00
 -11   3  -6    2.40    3.80
 -11   3  -6    3.90    3.80
 -11  -3  -6   -1.60    1.90
 -11  -3  -6    2.30    4.30
  11  -3   6    1.10    3.00
  11  -3   6   -0.20    2.20
 -11   3  -7   -5.40    3.90
  11   3   7   10.90    3.80
 -11   3  -7    7.00    4.70
  11  -3   7    2.40    2.20
  11  -3   7    7.80    3.60
 -11  -3  -7    2.80    2.60
 -11  -3  -7    8.30    5.20
  11   3   8    0.50    2.60
 -11   3  -8   10.60    6.00
 -11   3  -8    9.00    5.20
 -11  -3  -8   14.60    6.30
  11  -3   8   10.00    3.10
 -11  -3  -8   10.20    3.50
  11   3   9   -1.40    2.30
 -11   3  -9   -2.40    4.90
 -11   3  -9   -0.30    5.40
 -11  -3  -9   -0.90    2.60
  11  -3   9   -0.20    2.40
 -11  -3  -9    0.70    5.30
  11   3  10    6.50    3.50
 -11   3 -10    3.20    6.20
  11  -3  10    4.70    3.00
 -11  -3 -10   -0.40    6.40
 -11  -3 -10    9.20    4.20
  11   4 -14   -6.00    4.70
  11   4 -14    6.50    5.50
  11  -4 -14    1.30    5.50
 -11  -4  14    0.00    3.60
  11   4 -13   15.60    6.30
  11  -4 -13   -5.30    5.70
 -11  -4  13   24.50    5.30
  11   4 -12   40.60    9.10
 -11  -4  12   48.10    7.90
  11  -4 -12   36.90    9.90
  11   4 -11   41.10    9.30
  11  -4 -11   32.30    9.00
 -11  -4  11   37.90    6.70
  11   4 -10    1.80    4.10
  11   4 -10   -1.90    2.80
  11  -4 -10    0.70    4.60
 -11  -4  10    8.10    3.50
  11   4  -9    2.30    3.60
  11   4  -9   -1.40    2.50
  11  -4  -9   -0.20    3.90
 -11  -4   9    2.60    2.70
  11   4  -8   -0.80    3.30
  11   4  -8    0.60    2.80
  11  -4  -8    4.00    4.00
 -11  -4   8    0.90    2.30
 -11  -4   8    3.00    3.30
  11   4  -7   65.99   11.50
  11   4  -7   80.59   11.00
  11  -4  -7   57.69   10.80
 -11  -4   7   55.49    9.40
 -11  -4   7   82.39   10.80
  11   4  -6  121.89   15.10
  11   4  -6  113.59   15.70
  11  -4  -6   89.59   12.30
 -11  -4   6  100.79   13.60
 -11  -4   6  117.09   14.70
  11  -4  -6   93.29   14.70
  11   4  -5    9.20    3.90
  11   4  -5    8.40    3.90
  11   4  -5    1.80    3.10
 -11  -4   5    5.50    2.70
  11  -4  -5    6.00    2.40
 -11  -4   5    5.00    3.20
  11  -4  -5    3.80    3.30
  11   4  -4  209.48   25.50
  11   4  -4  215.08   25.50
  11   4  -4  232.38   25.10
  11  -4  -4  209.08   24.20
 -11  -4   4  208.18   24.60
  11  -4  -4  199.78   25.00
 -11  -4   4  195.08   25.00
 -11   4   3  107.99   12.80
  11   4  -3  120.69   14.60
  11   4  -3  101.09   14.90
  11   4  -3   87.39   14.40
 -11  -4   3  100.69   14.50
  11  -4  -3   93.79   14.10
 -11  -4   3  118.59   14.30
  11  -4  -3  113.09   13.20
 -11   4   2  112.69   12.80
  11   4  -2  103.79   14.00
  11   4  -2  102.99   14.70
  11   4  -2  109.69   15.00
  11  -4  -2  104.09   13.00
 -11  -4   2  110.29   13.30
  11  -4  -2   97.89   13.60
 -11  -4   2   85.99   13.80
  11   4  -1   48.00    8.50
  11   4  -1   66.59    9.90
 -11   4   1   63.59    8.30
  11  -4  -1   46.60    8.00
  11  -4  -1   62.59    8.00
 -11  -4   1   59.19    8.70
  11  -4  -1   56.79    8.40
 -11  -4   1   54.09    9.20
 -11   4   0    0.70    2.40
  11   4   0    0.00    2.80
  11   4   0    0.80    2.40
  11  -4   0    0.70    1.60
 -11  -4   0   -2.80    2.30
  11  -4   0    0.60    2.10
  11  -4   0   -4.70    1.70
 -11  -4   0    3.60    2.50
 -11   4  -1   94.79   12.70
  11   4   1   91.89   13.10
  11   4   1   90.79   13.60
  11  -4   1   92.89   12.80
  11  -4   1  101.09   11.80
  11  -4   1   93.19   11.90
 -11  -4  -1   92.59   13.40
 -11   4  -2   28.00    6.40
  11   4   2   38.70    6.90
 -11   4  -2   42.20    7.30
  11   4   2   37.50    7.60
  11  -4   2   32.10    6.00
  11  -4   2   42.70    7.00
 -11  -4  -2   39.20    7.30
  11  -4   2   57.59    6.90
  11   4   3    3.90    2.90
 -11   4  -3   10.90    3.50
 -11   4  -3    1.40    2.80
  11   4   3    6.30    3.70
  11  -4   3    1.70    2.40
 -11  -4  -3    4.30    3.50
 -11  -4  -3    3.00    3.20
  11  -4   3    5.90    3.10
  11  -4   3    5.90    3.00
 -11   4  -4   16.70    5.20
  11   4   4   34.70    6.00
 -11   4  -4   23.80    6.30
 -11   4  -4   26.80    6.10
  11  -4   4   22.40    4.80
  11  -4   4   21.30    5.30
 -11  -4  -4   22.10    6.00
 -11  -4  -4   30.40    6.00
 -11   4  -5   -5.40    2.90
 -11   4  -5    3.80    4.00
 -11   4  -5   -0.20    3.00
  11   4   5   -0.90    2.20
 -11  -4  -5    2.90    3.20
  11  -4   5    1.10    2.50
 -11  -4  -5    9.60    4.40
  11  -4   5    1.10    2.90
  11   4   6   24.40    6.10
 -11   4  -6   60.69    9.00
 -11   4  -6   56.49    9.40
 -11   4  -6   28.40    7.30
  11  -4   6   31.30    5.90
  11  -4   6   40.70    7.00
 -11  -4  -6   37.30    8.40
  11   4   7   18.10    5.30
 -11   4  -7   18.90    6.40
 -11   4  -7   29.50    7.50
  11  -4   7   37.00    6.70
  11  -4   7   34.60    5.60
 -11  -4  -7   42.70    8.70
 -11   4  -8    4.50    5.20
 -11   4  -8    2.30    4.60
  11   4   8    3.00    2.90
 -11  -4  -8   -1.00    4.60
  11  -4   8   -2.80    2.10
 -11   4  -9    7.80    6.00
 -11   4  -9    7.40    5.70
  11   4   9   -3.40    2.60
 -11  -4  -9   10.90    6.20
  11  -4   9    2.30    2.40
 -11   4 -10   -2.30    5.10
  11   5 -13   13.30    6.30
 -11  -5  13   11.80    4.90
  11  -5 -13    9.30    7.10
  11   5 -12   14.50    6.60
  11  -5 -12   16.20    7.50
 -11  -5  12   30.90    6.20
  11   5 -11   75.19   13.30
 -11  -5  11  111.39   13.00
  11  -5 -11   61.29   13.50
  11   5 -10    7.80    4.80
  11   5 -10    5.90    3.70
 -11  -5  10    7.60    3.70
  11  -5 -10    6.70    5.60
  11   5  -9   17.10    6.20
  11   5  -9   19.70    5.30
  11  -5  -9   25.50    6.80
 -11  -5   9   24.40    5.40
  11   5  -8    1.20    3.80
  11   5  -8   11.00    4.40
  11  -5  -8    9.70    4.90
 -11  -5   8    2.90    3.60
 -11  -5   8   12.60    4.00
  11   5  -7    0.40    3.00
  11   5  -7    0.00    3.30
  11  -5  -7    4.70    4.10
 -11  -5   7    0.80    3.10
 -11  -5   7    0.40    2.90
  11   5  -6   11.60    4.40
  11   5  -6   16.40    5.30
 -11  -5   6   10.80    4.10
  11  -5  -6   11.60    4.80
 -11  -5   6   11.10    3.80
  11   5  -5   -1.00    3.10
  11   5  -5   -4.10    2.60
  11   5  -5    2.10    3.20
  11  -5  -5    4.80    3.50
 -11  -5   5   -0.60    2.80
  11  -5  -5   -0.30    1.80
 -11  -5   5   -3.30    1.90
 -11   5   4    0.10    1.80
  11   5  -4   -1.80    2.60
  11   5  -4    2.70    3.20
  11   5  -4    1.00    3.00
  11  -5  -4    5.00    3.20
  11  -5  -4   -0.20    1.70
 -11  -5   4    0.50    2.40
 -11  -5   4    3.90    2.80
  11   5  -3    5.10    3.80
  11   5  -3   17.90    5.10
  11   5  -3   13.80    4.50
 -11   5   3   12.90    3.00
  11  -5  -3    2.90    3.20
 -11  -5   3    7.30    3.60
  11  -5  -3   11.20    3.10
 -11  -5   3   16.70    4.50
 -11   5   2   -1.70    1.70
  11   5  -2   -2.00    2.70
  11   5  -2    0.20    3.00
  11   5  -2   -1.80    2.30
 -11  -5   2   -2.80    1.90
 -11  -5   2   -1.40    2.40
  11  -5  -2    2.80    2.70
  11  -5  -2    1.90    2.10
  11   5  -1   -1.70    2.10
 -11   5   1    6.30    2.60
  11   5  -1    5.90    3.50
  11  -5  -1    2.40    2.50
 -11  -5   1   -0.90    2.20
  11  -5  -1    8.20    2.90
 -11  -5   1    1.20    2.90
  11   5   0   15.50    5.00
 -11   5   0   19.30    4.40
  11   5   0   17.10    4.70
  11  -5   0   17.10    4.10
 -11  -5   0   14.10    4.60
  11  -5   0   16.50    4.20
 -11  -5   0   12.00    4.20
  11  -5   0   18.20    3.50
 -11   5  -1   10.70    3.40
  11   5   1   12.10    4.20
  11   5   1    5.80    4.20
  11  -5   1    8.30    2.90
 -11  -5  -1   15.10    4.20
  11  -5   1   11.20    3.40
  11  -5   1   11.00    3.60
  11   5   2    3.20    3.00
  11   5   2   -1.70    2.40
 -11   5  -2    4.40    2.70
  11  -5   2   -2.40    2.10
  11  -5   2   -0.20    2.30
  11  -5   2   -2.10    2.40
 -11  -5  -2   -6.00    2.40
  11   5   3   34.00    6.90
 -11   5  -3    9.10    3.90
 -11   5  -3   19.40    4.90
  11   5   3   16.00    4.80
  11  -5   3   29.90    5.00
  11  -5   3   24.90    5.40
  11  -5   3   12.80    4.00
 -11  -5  -3   20.70    5.40
 -11   5  -4   20.90    5.60
 -11   5  -4   30.40    6.30
  11   5   4   17.50    5.10
  11  -5   4   19.10    5.30
 -11  -5  -4   28.20    5.90
  11  -5   4   24.50    5.10
  11  -5   4   29.00    5.20
 -11   5  -5   23.70    5.90
  11   5   5   16.80    4.50
 -11   5  -5   18.40    5.80
 -11   5  -5   14.90    5.30
  11  -5   5    5.50    4.30
 -11  -5  -5    4.30    4.40
  11  -5   5   12.20    4.00
 -11   5  -6   38.00    7.50
 -11   5  -6   29.20    6.70
  11   5   6   27.00    5.90
 -11  -5  -6   35.60    7.70
  11  -5   6   26.10    5.50
  11  -5   6   24.90    6.20
 -11   5  -7   -0.60    4.10
 -11   5  -7   -1.10    4.20
  11   5   7    3.70    3.20
  11  -5   7   -0.30    2.80
 -11  -5  -7    3.30    4.80
  11  -5   7   -0.60    2.80
 -11   5  -8   14.90    6.80
  11   5   8   16.60    4.50
 -11   5  -8   22.10    6.50
  11  -5   8    9.70    3.90
  11  -5   8    6.80    4.20
 -11  -5  -8    9.50    6.20
  11   5   9   15.50    4.60
 -11   5  -9   20.80    7.40
 -11   5  -9   20.30    7.30
 -11  -5  -9   15.30    7.00
  11  -5   9   13.10    3.90
  11   6 -12   -0.40    4.60
  11  -6 -12    0.50    6.60
 -11  -6  12    2.20    3.60
  11   6 -11    4.80    5.00
  11   6 -11   12.30    7.90
 -11  -6  11   11.40    4.20
  11  -6 -11   -0.10    5.20
  11   6 -10    2.60    3.90
  11   6 -10    0.80    4.90
  11   6 -10   -2.20    4.10
  11  -6 -10   -3.20    5.00
 -11  -6  10   -3.90    2.70
  11   6  -9   16.70    5.10
  11   6  -9    6.20    6.20
  11   6  -9   17.90    6.30
  11  -6  -9   10.70    5.60
 -11  -6   9   13.50    4.60
 -11  -6   9   13.50    5.00
  11   6  -8    5.70    4.20
  11   6  -8   -1.30    4.90
  11   6  -8    2.80    3.50
 -11  -6   8    5.40    3.70
 -11  -6   8    1.50    4.00
  11  -6  -8    5.30    5.10
  11   6  -7   -0.50    3.60
  11   6  -7   -1.70    3.20
  11  -6  -7   -1.60    3.90
 -11  -6   7   -3.00    3.20
 -11  -6   7    3.40    2.70
  11   6  -6    2.50    3.90
  11   6  -6    1.20    3.50
 -11  -6   6    7.50    4.10
  11  -6  -6    6.40    4.60
 -11  -6   6   -1.20    2.60
  11   6  -5   22.60    5.90
 -11   6   5   30.60    4.50
  11   6  -5   28.70    6.70
  11   6  -5   23.20    6.00
 -11  -6   5   26.00    5.50
  11  -6  -5   30.90    6.90
 -11  -6   5   19.00    5.70
  11  -6  -5   11.80    4.00
  11   6  -4   50.39    8.50
  11   6  -4   36.10    8.00
 -11   6   4   48.80    6.50
  11   6  -4   37.60    8.20
  11  -6  -4   40.20    6.50
 -11  -6   4   36.40    7.10
  11  -6  -4   33.60    7.40
 -11  -6   4   43.40    8.10
  11   6  -3    1.10    3.00
  11   6  -3   -1.60    3.10
 -11   6   3   -0.20    1.90
  11   6  -3   -0.30    3.10
 -11  -6   3   -1.60    2.60
  11  -6  -3   -0.70    1.80
 -11  -6   3   -2.10    2.40
  11  -6  -3   -2.70    2.60
  11   6  -2   72.39   10.60
 -11   6   2   58.49    8.10
  11   6  -2   40.90    9.10
  11   6  -2   62.39    9.50
 -11  -6   2   48.80    9.30
  11  -6  -2   46.50    9.00
  11  -6  -2   51.59    8.20
 -11  -6   2   68.09    9.60
 -11   6   1  164.08   18.30
  11   6  -1  160.28   19.30
  11   6  -1  153.88   19.10
  11   6  -1  140.89   20.40
  11  -6  -1  137.89   18.30
 -11  -6   1  162.98   19.50
 -11  -6   1  142.69   19.40
  11  -6  -1  144.39   18.60
 -11   6   0   28.60    5.50
  11   6   0   30.00    6.40
  11   6   0   25.70    6.80
 -11  -6   0   29.30    6.60
  11  -6   0   29.00    5.80
  11  -6   0   35.20    6.20
  11   6   1   49.50    8.80
 -11   6  -1   42.00    7.80
  11   6   1   59.79   10.30
  11  -6   1   43.10    7.60
  11  -6   1   56.39    8.60
  11  -6   1   77.89    9.20
 -11  -6  -1   50.69    9.00
 -11   6  -2    1.60    3.10
  11   6   2   13.60    4.90
  11   6   2    3.30    3.10
 -11  -6  -2    3.60    3.60
  11  -6   2   -1.20    3.00
  11  -6   2    9.40    3.60
  11  -6   2    4.60    3.10
  11   6   3    5.70    3.00
 -11   6  -3    5.20    3.30
 -11   6  -3    1.40    3.30
 -11  -6  -3    1.20    3.50
  11  -6   3   10.90    3.70
  11  -6   3    0.90    2.90
  11  -6   3   -2.80    3.00
 -11   6  -4   22.50    5.80
 -11   6  -4   14.80    5.00
  11   6   4   29.10    5.90
 -11  -6  -4   29.50    6.20
  11  -6   4   18.80    5.00
  11  -6   4   23.30    5.70
  11  -6   4   25.60    5.00
  11   6   5    9.70    3.70
 -11   6  -5   -3.90    3.00
 -11   6  -5    2.70    3.30
  11  -6   5   -2.70    2.80
  11  -6   5   -2.70    3.10
  11  -6   5    7.20    4.20
 -11   6  -6   -3.00    3.70
 -11   6  -6    1.80    4.00
  11   6   6   -1.60    2.70
  11  -6   6   -3.60    3.10
  11  -6   6   -0.80    2.90
  11   6   7    3.80    3.30
 -11   6  -7    6.40    5.40
 -11   6  -7   -2.20    4.00
  11  -6   7   -0.40    3.00
  11  -6   7   -4.80    3.30
 -11  -6  -7   -0.70    4.40
  11   6   8    8.30    3.90
 -11   6  -8    8.40    5.40
 -11   6  -8   11.10    5.90
 -11  -6  -8    6.30    5.80
  11  -6   8    8.30    4.30
  11  -6   8   -0.40    3.10
  11   7 -11    8.90    7.90
 -11  -7  11   18.10    5.00
  11  -7 -11    4.10    7.40
  11   7 -10   -0.90    5.50
  11   7 -10    9.10    4.40
 -11  -7  10    0.60    3.80
  11  -7 -10   -5.90    5.10
  11   7  -9    0.20    3.60
  11   7  -9    0.00    5.70
 -11  -7   9   -0.90    3.80
 -11  -7   9   -0.40    3.20
  11  -7  -9    8.20    5.80
  11   7  -8    1.40    5.20
  11   7  -8   -2.90    3.80
 -11  -7   8    4.70    3.30
 -11  -7   8    0.90    3.70
  11  -7  -8   -2.80    4.80
  11   7  -7   -3.40    3.30
  11   7  -7   -3.70    3.30
 -11  -7   7   -2.60    3.30
 -11  -7   7   -1.20    2.70
  11  -7  -7    2.10    4.50
  11   7  -6   13.80    5.60
  11   7  -6   11.90    4.70
 -11  -7   6    9.00    4.10
 -11  -7   6   10.40    4.40
  11  -7  -6    4.80    4.90
  11   7  -5   46.50    8.80
 -11   7   5   30.70    5.40
  11   7  -5   49.50    8.50
 -11  -7   5   41.00    7.90
 -11  -7   5   32.30    6.40
  11  -7  -5   14.90    6.70
 -11   7   4   20.30    4.20
  11   7  -4   12.60    5.80
  11   7  -4   35.60    6.80
 -11  -7   4   13.60    5.60
 -11  -7   4   22.30    5.20
  11  -7  -4    9.30    5.40
  11  -7  -4   22.80    4.50
  11   7  -3    3.90    3.70
  11   7  -3    0.20    3.20
 -11   7   3   -1.20    2.20
 -11  -7   3   -1.30    3.40
 -11  -7   3   -0.30    3.10
  11  -7  -3   -0.90    3.50
  11  -7  -3    2.60    2.30
  11   7  -2   11.50    5.20
 -11   7   2   16.50    3.70
  11   7  -2   17.00    5.30
  11  -7  -2   11.90    3.80
  11  -7  -2   17.30    5.20
 -11  -7   2   12.10    4.70
 -11  -7   2   17.30    5.60
 -11   7   1  144.89   17.90
  11   7  -1  124.49   20.00
  11   7  -1  148.19   19.90
 -11  -7   1  159.08   20.30
  11  -7  -1  146.79   19.50
  11  -7  -1  159.18   18.30
  11   7   0    5.70    4.60
  11   7   0    4.50    4.00
 -11   7   0    2.30    3.00
  11  -7   0   10.00    3.90
 -11  -7   0    5.10    4.00
  11  -7   0    7.20    4.10
  11   7   1   59.99   11.30
 -11   7  -1   61.79    9.70
  11   7   1   72.49   10.90
  11  -7   1   57.59    9.70
  11  -7   1   69.09   10.20
 -11  -7  -1   63.79   10.50
  11   7   2    0.00    3.40
 -11   7  -2    0.10    3.10
  11   7   2    0.00    4.60
  11  -7   2    2.20    3.60
  11  -7   2   -0.20    3.10
 -11  -7  -2   10.20    4.20
  11  -7   2    8.20    3.60
  11   7   3    1.80    3.00
 -11   7  -3    0.00    3.00
  11  -7   3    2.30    3.80
 -11  -7  -3    4.10    4.00
  11  -7   3   -2.30    3.10
  11  -7   3   -1.60    3.00
 -11   7  -4   19.80    5.40
  11   7   4   18.90    5.20
 -11   7  -4   14.50    4.70
  11  -7   4   18.70    5.00
  11  -7   4   14.00    5.20
  11  -7   4   13.10    4.40
  11   7   5    5.30    3.70
 -11   7  -5   13.40    5.00
 -11   7  -5    5.70    4.10
  11  -7   5   15.20    5.10
  11  -7   5    4.00    3.90
  11  -7   5   11.30    4.00
  11   7   6   10.20    4.20
 -11   7  -6    0.50    4.60
 -11   7  -6    6.00    4.60
  11  -7   6    7.50    4.50
  11  -7   6    0.00    3.80
  11  -7   6    3.80    3.50
 -11   7  -7   -3.10    4.40
  11   8  -9   20.00    6.60
  11   8  -9   13.70    8.80
  11  -8  -9   18.70    8.00
 -11  -8   9   31.20    6.20
 -11  -8   9   16.50    5.90
  11   8  -8    4.50    6.60
  11   8  -8   -0.70    4.70
  11  -8  -8    2.70    6.00
 -11  -8   8    1.10    4.30
 -11  -8   8   -2.60    3.20
  11   8  -7   -2.80    4.20
  11   8  -7    0.90    4.60
  11  -8  -7   -2.30    5.30
 -11  -8   7   -1.30    3.40
 -11  -8   7    7.80    4.20
 -11   8   6    6.10    4.30
  11   8  -6    5.30    4.60
  11   8  -6   12.80    6.30
 -11  -8   6   13.70    5.30
 -11  -8   6    8.60    4.20
  11  -8  -6    6.50    5.30
  11   8  -5   11.20    4.90
 -11   8   5   10.20    3.20
  11   8  -5   14.70    5.80
  11  -8  -5   11.70    5.90
 -11  -8   5    2.70    4.10
 -11  -8   5    4.50    4.00
  11   8  -4    3.80    4.40
  11   8  -4    1.90    4.50
 -11   8   4    1.20    2.50
  11  -8  -4   -5.60    3.90
 -11  -8   4    1.80    3.60
 -11  -8   4    5.50    4.20
  11   8  -3    4.90    4.30
 -11   8   3   -0.10    2.40
  11   8  -3    1.60    3.70
  11  -8  -3   -3.80    3.80
 -11  -8   3   -4.10    4.60
  11  -8  -3   -2.30    2.40
 -11  -8   3    3.40    3.90
 -11   8   2    2.00    2.50
  11   8  -2    5.60    3.60
  11   8  -2   -0.50    3.90
  11  -8  -2    0.80    2.50
  11  -8  -2    1.60    3.80
 -11  -8   2   -5.00    3.60
  11   8  -1    3.70    4.80
  11   8  -1   -4.60    3.00
 -11   8   1   -1.60    2.20
  11  -8  -1   -3.20    2.50
 -11  -8   1   -2.40    3.60
  11  -8  -1   -2.40    4.00
  11   8   0  151.18   19.10
  11   8   0  128.29   19.30
 -11   8   0  126.89   17.30
  11  -8   0  144.79   17.20
  11  -8   0  123.09   18.00
  11   8   1   19.70    5.70
  11   8   1   10.50    5.00
 -11   8  -1   15.50    4.60
  11  -8   1   20.00    5.70
 -11  -8  -1   20.50    5.40
  11  -8   1   13.80    4.90
 -11   8  -2    4.30    3.90
  11   8   2    4.70    4.30
  11  -8   2    4.80    3.80
  11  -8   2    5.90    4.10
 -11  -8  -2   -3.10    3.80
  11   8   3    3.40    4.00
 -11   8  -3    0.20    3.30
 -11   8  -3   -1.90    3.20
  11  -8   3   -3.50    3.40
  11  -8   3  -10.10    3.60
  11  -8   3    4.20    4.00
 -11   8  -4    1.30    3.20
 -11   8  -4    1.20    4.10
  11   8   4   -2.10    3.20
  11  -8   4   -5.20    3.10
  11  -8   4    0.40    3.70
  11  -8   4    1.00    4.30
 -11   8  -5    8.20    5.10
  11   8   5   11.30    4.50
 -11   8  -5    1.50    4.00
  11  -8   5    9.20    4.60
  11  -8   5   -7.10    3.00
  11  -8   5    7.40    4.50
  11  -9  -7   -7.60    5.90
 -11   9   6    1.80    3.10
  11   9  -6   -0.40    5.10
  11   9  -6    1.00    4.90
  11  -9  -6   -1.50    6.00
 -11  -9   6   -1.90    4.50
 -11  -9   6    0.20    3.80
  11   9  -5    7.50    5.90
  11   9  -5    1.30    5.00
  11   9  -5    0.50    4.90
 -11   9   5    0.60    2.70
 -11  -9   5   -0.60    3.80
  11  -9  -5    7.80    6.30
 -11  -9   5    2.70    4.50
  11   9  -4   -6.80    4.00
  11   9  -4    3.30    4.80
 -11   9   4    0.50    2.90
  11  -9  -4   10.80    6.20
 -11  -9   4    1.90    4.90
  11   9  -3    2.00    4.10
 -11   9   3    0.50    2.50
  11  -9  -3   -4.10    4.60
 -11  -9   3   -2.20    4.50
  11   9  -2    0.00    4.50
  11   9  -2   -0.60    4.40
 -11   9   2   -4.60    2.30
  11  -9  -2   -0.40    2.90
  11  -9  -2    0.60    5.00
 -11  -9   2   -3.40    3.60
  11   9  -1    6.00    4.80
 -11   9   1   20.90    4.70
  11   9  -1    3.50    5.60
 -11  -9   1    7.70    5.00
  11  -9  -1   19.80    6.50
  11  -9  -1   10.70    4.20
  11   9   0    7.20    4.40
  11   9   0   14.80    6.50
 -11   9   0   20.40    4.70
  11  -9   0    9.40    3.90
 -11  -9   0   14.20    5.50
  11  -9   0    1.20    4.20
 -11   9  -1    5.70    3.90
  11   9   1    3.00    4.40
 -11  -9  -1    7.60    4.70
  11  -9   1    4.90    4.70
  11  -9   1    6.30    3.90
 -11   9  -2   -4.00    3.60
  11   9   2    0.90    4.10
  11  -9   2    5.50    4.10
  11  -9   2    0.20    4.30
  12   0 -15    9.50    6.00
  12   0 -14   14.80    7.40
  12   0 -14   18.50    6.70
  12   0 -13    0.10    5.20
  12   0 -13    3.70    4.60
  12   0 -12   -4.40    4.50
  12   0 -12   -1.10    4.10
 -12   0  12    2.70    2.60
  12   0 -11    3.70    4.10
 -12   0  11    0.10    2.50
  12   0 -11   -2.50    4.10
  12   0 -10   17.70    6.10
  12   0 -10   35.90    8.20
 -12   0  10   20.00    4.40
  12   0  -9    0.50    3.90
  12   0  -9   -2.60    3.40
 -12   0   9   -0.70    1.80
  12   0  -8  375.56   40.50
  12   0  -8  338.67   38.60
  12   0  -8  318.27   39.70
  12   0  -7   -4.90    2.80
  12   0  -7   -0.40    2.90
  12   0  -7   -0.20    2.00
  12   0  -6   -3.70    2.50
  12   0  -6    4.90    2.50
  12   0  -6    4.20    3.10
  12   0  -5   -1.10    1.80
  12   0  -5   -3.10    2.00
  12   0  -5   -2.30    2.40
  12   0  -4  219.38   23.80
  12   0  -4  178.98   23.40
  12   0  -4  202.98   24.00
  12   0  -3    1.40    2.50
  12   0  -3   -1.20    2.20
  12   0  -3    2.00    2.30
  12   0  -3    0.90    2.00
  12   0  -2   24.40    4.80
  12   0  -2   25.80    5.40
  12   0  -1    0.10    1.80
  12   0  -1    1.60    2.20
 -12   0   1   -0.60    2.30
  12   0   0   54.19    9.60
 -12   0   0   65.19   10.00
 -12   0   0   79.29    9.80
  12   0   0   63.69    9.40
  12   0   1   -4.70    1.80
  12   0   1    0.70    1.80
 -12   0  -1    5.20    3.40
 -12   0  -1   -1.40    2.50
  12   0   2   45.80    8.80
 -12   0  -2   67.99    9.80
 -12   0  -2   73.29   10.60
  12   0   2   51.29    8.60
  12   0   3   -4.00    2.00
 -12   0  -3   -6.30    2.70
 -12   0  -3    2.50    3.90
  12   0   3   -1.40    1.90
  12   0   4    1.40    2.50
 -12   0  -4    4.80    4.40
  12   0   4   -3.10    2.40
  12   0   5   -2.20    2.20
  12   0   5   -4.30    2.60
 -12   0  -5    4.40    4.80
 -12   0  -6    3.30    5.00
  12   0   6   -0.30    2.50
  12   0   7   -2.40    2.30
 -12   0  -7   -6.40    4.20
 -12   0  -8    8.00    5.90
  12   0   8   -0.10    2.90
  12   0   9   -1.70    2.70
 -12   0  -9    3.90    5.60
 -12   0 -10   -2.00    6.50
  12   0  10    1.00    3.10
  12   1 -14    0.30    4.90
  12   1 -14    2.30    5.80
  12  -1 -14    3.10    5.00
  12  -1 -14    8.60    6.10
  12   1 -13   17.50    5.90
  12   1 -13    5.90    6.50
  12  -1 -13    6.20    6.30
  12  -1 -13   20.50    6.80
  12   1 -12   -0.40    4.20
  12   1 -12   -0.50    3.90
 -12  -1  12   -2.50    2.30
  12  -1 -12   -1.00    5.00
  12  -1 -12   -1.70    4.00
  12   1 -11   -6.60    3.60
  12   1 -11    1.40    4.20
 -12   1  11    1.00    2.40
 -12  -1  11    4.90    2.90
  12  -1 -11    1.70    3.60
  12  -1 -11   -4.90    4.20
 -12   1  10    6.40    2.70
  12   1 -10    7.40    5.30
  12   1 -10    1.80    4.00
  12  -1 -10    4.10    4.30
 -12  -1  10    2.00    2.50
  12  -1 -10    5.10    4.70
  12   1  -9  156.68   21.30
  12   1  -9  186.08   23.00
  12  -1  -9  132.79   21.10
 -12  -1   9  157.68   19.20
  12  -1  -9  200.48   23.40
  12   1  -8  112.89   16.80
  12   1  -8  115.39   14.20
  12   1  -8  119.49   16.00
 -12  -1   8  107.29   13.80
  12  -1  -8   95.49   15.60
  12  -1  -8  126.79   17.00
  12   1  -7   -3.20    2.90
  12   1  -7   -0.80    2.40
  12   1  -7   -3.80    2.80
 -12  -1   7   -1.00    1.70
  12  -1  -7    0.10    1.90
  12  -1  -7    2.40    3.50
  12  -1  -7    1.40    3.20
  12   1  -6   14.20    3.90
  12   1  -6   14.80    4.60
  12   1  -6   10.20    4.20
  12  -1  -6   12.00    3.30
  12  -1  -6   14.30    4.70
  12  -1  -6    8.50    4.00
  12   1  -5    2.90    2.60
  12   1  -5    3.60    3.40
  12  -1  -5    1.20    2.30
  12  -1  -5   -0.60    2.60
  12  -1  -5    9.00    3.80
  12   1  -4   88.69   11.50
  12   1  -4   81.99   11.90
  12   1  -4   67.89   11.80
  12  -1  -4   87.59   12.40
  12  -1  -4   76.59   11.40
  12  -1  -4   88.09   12.00
  12   1  -3   39.90    7.40
  12   1  -3   42.10    7.80
  12   1  -3   51.49    7.50
  12  -1  -3   39.20    7.20
  12  -1  -3   49.30    8.00
  12  -1  -3   35.80    7.00
  12  -1  -3   53.29    7.30
  12   1  -2    4.40    2.50
  12   1  -2   -1.40    2.20
 -12   1   2    3.60    2.20
  12  -1  -2    5.40    2.40
  12  -1  -2    1.80    2.40
  12  -1  -2   -0.40    2.00
  12   1  -1    1.80    2.30
  12   1  -1    2.10    2.50
 -12   1   1   -1.00    2.30
  12  -1  -1    1.00    2.10
  12  -1  -1    0.60    1.70
  12  -1  -1    0.50    2.20
  12   1   0   28.20    5.80
 -12   1   0   33.60    5.50
  12   1   0    7.80    3.50
 -12   1   0   23.80    4.90
  12  -1   0   14.30    4.10
  12  -1   0   25.40    4.50
 -12  -1   0   24.70    5.20
  12  -1   0   17.80    3.90
  12   1   1    1.90    2.90
 -12   1  -1    7.50    3.40
 -12   1  -1   10.80    3.90
  12   1   1    0.60    2.20
  12  -1   1    5.50    2.50
 -12  -1  -1   10.30    3.90
  12  -1   1    2.30    2.60
 -12   1  -2   82.79   10.60
 -12   1  -2   57.79    9.90
  12   1   2   56.79    9.00
  12   1   2   74.19   10.60
 -12  -1  -2   77.39   11.10
  12  -1   2   50.29    8.60
  12  -1   2   51.09    9.00
 -12   1  -3    5.30    3.70
  12   1   3    5.40    2.80
  12   1   3   -2.00    2.60
 -12   1  -3    4.30    3.80
 -12  -1  -3    3.50    3.90
  12  -1   3    4.10    2.60
  12  -1   3    1.70    2.70
 -12   1  -4   -1.90    3.70
  12   1   4    7.30    3.20
 -12   1  -4    7.40    4.20
  12   1   4    9.90    4.00
  12  -1   4   -2.00    2.10
  12  -1   4    2.50    3.30
 -12  -1  -4    1.90    4.30
 -12   1  -5    0.90    4.10
 -12   1  -5    8.90    5.40
  12   1   5    4.10    3.20
  12   1   5    5.50    4.00
  12  -1   5   13.10    4.20
  12  -1   5    2.20    2.80
 -12  -1  -5    9.80    5.20
  12   1   6  260.37   33.30
 -12   1  -6  314.17   35.50
  12  -1   6  288.37   33.90
 -12  -1  -6  301.07   35.40
  12  -1   6  284.87   33.30
 -12   1  -7   -0.20    4.40
  12   1   7    2.80    3.00
  12  -1   7    7.70    3.50
 -12  -1  -7    6.80    5.60
  12   1   8    3.20    2.90
 -12   1  -8    1.70    5.40
 -12  -1  -8   12.20    6.90
  12  -1   8   12.90    4.00
  12   1   9    5.80    3.30
 -12   1  -9   12.90    7.60
 -12  -1  -9    8.00    6.80
  12  -1   9   -1.30    2.30
  12   1  10    1.30    3.50
 -12   1 -10    7.40    7.60
  12  -1  10    0.40    3.00
 -12  -1 -10   13.50    7.80
  12   2 -14   29.90    7.60
  12   2 -14   30.80    9.60
  12  -2 -14   16.70    8.20
  12  -2 -14   15.20    7.50
  12   2 -13   -0.60    4.40
  12   2 -13    1.80    6.10
 -12  -2  13    4.40    3.20
  12  -2 -13   11.60    7.00
  12  -2 -13    6.20    5.50
  12   2 -12    9.40    6.10
  12   2 -12    8.70    5.10
 -12  -2  12    2.20    3.00
  12  -2 -12    4.90    5.70
  12  -2 -12    4.30    4.60
  12   2 -11   -4.30    3.90
  12   2 -11    1.00    3.80
 -12   2  11    0.10    2.70
  12  -2 -11    4.10    4.60
 -12  -2  11    1.90    2.60
  12  -2 -11    1.30    4.50
  12   2 -10   20.70    5.50
  12   2 -10    5.20    5.10
  12  -2 -10    2.10    4.50
  12  -2 -10    4.40    4.50
 -12  -2  10    4.90    2.90
  12   2  -9   13.80    3.80
  12   2  -9    5.10    3.90
  12   2  -9    7.20    5.00
  12  -2  -9   10.40    5.30
  12  -2  -9    3.10    3.90
 -12  -2   9    9.60    3.30
  12   2  -8    4.50    3.80
  12   2  -8   -1.50    2.50
  12   2  -8    2.60    3.90
  12  -2  -8    2.90    3.50
 -12  -2   8    2.30    2.50
  12  -2  -8   -0.30    4.30
  12   2  -7   -4.30    2.10
  12   2  -7    2.50    3.40
 -12  -2   7    4.00    3.10
 -12  -2   7    1.30    2.10
  12  -2  -7    7.70    4.00
  12  -2  -7    2.10    3.30
  12  -2  -7    4.70    2.40
  12   2  -6   -2.50    2.60
  12   2  -6   -4.30    2.00
  12  -2  -6    0.20    2.00
 -12  -2   6    7.20    3.30
  12  -2  -6    1.90    3.20
  12  -2  -6    5.10    3.60
 -12  -2   6   -0.20    1.80
  12   2  -5   15.20    4.30
  12   2  -5   14.60    5.00
 -12  -2   5   13.80    3.50
  12  -2  -5   17.20    3.80
 -12  -2   5   11.80    3.70
  12  -2  -5   12.60    4.50
  12  -2  -5   10.20    4.00
  12   2  -4    0.20    2.20
  12   2  -4   -2.90    2.00
  12   2  -4   -2.00    2.50
  12  -2  -4    3.10    2.70
 -12  -2   4    1.60    1.80
  12  -2  -4   -0.50    2.40
  12  -2  -4   -0.10    1.90
  12   2  -3   27.40    4.80
  12   2  -3   13.90    4.70
  12   2  -3   18.60    4.90
 -12  -2   3   17.70    4.20
  12  -2  -3   12.40    4.00
  12  -2  -3   20.20    4.50
  12  -2  -3   22.40    4.90
  12   2  -2   -2.50    2.20
  12   2  -2    0.40    2.10
  12  -2  -2   -1.30    1.80
  12  -2  -2    2.30    2.00
  12  -2  -2   -1.30    2.20
  12   2  -1    7.20    2.80
  12   2  -1    9.50    3.60
 -12   2   1   10.80    3.40
 -12   2   1    7.10    3.10
  12  -2  -1    7.40    3.10
  12  -2  -1   10.40    2.70
  12  -2  -1    2.60    2.40
  12   2   0   14.90    4.50
 -12   2   0   12.40    3.90
 -12   2   0   23.20    4.80
  12   2   0   17.30    4.30
  12  -2   0   10.30    3.10
  12  -2   0   14.90    4.00
  12  -2   0   20.00    4.00
  12   2   1  249.68   32.60
 -12   2  -1  287.87   32.50
  12   2   1  277.07   32.40
 -12   2  -1  285.77   32.50
  12  -2   1  292.47   32.00
  12  -2   1  262.27   31.70
 -12  -2  -1  300.47   32.50
  12  -2   1  266.67   32.40
 -12  -2  -1  296.77   33.10
  12   2   2  217.18   32.60
 -12   2  -2  296.77   33.30
  12   2   2  287.27   33.50
 -12   2  -2  294.47   33.30
 -12  -2  -2  277.27   33.30
  12  -2   2  295.47   32.60
  12  -2   2  322.37   32.40
  12  -2   2  274.77   33.00
  12   2   3    6.50    3.50
 -12   2  -3   13.80    4.80
 -12   2  -3    6.20    3.80
  12   2   3   12.50    4.60
  12  -2   3    9.70    3.20
  12  -2   3   10.10    3.70
  12  -2   3    6.50    2.90
 -12  -2  -3   11.10    4.90
  12   2   4   12.10    4.20
 -12   2  -4   10.10    4.80
  12   2   4   10.70    4.40
 -12   2  -4   13.20    5.30
 -12  -2  -4   13.30    4.50
  12  -2   4   11.40    3.90
 -12  -2  -4   20.50    5.90
  12  -2   4   12.30    3.60
  12   2   5   78.99   11.80
 -12   2  -5   99.39   14.40
 -12   2  -5   74.09   12.80
 -12  -2  -5   89.49   12.60
 -12  -2  -5   97.39   14.30
  12  -2   5   60.19   11.40
  12  -2   5   86.09   11.60
 -12   2  -6   55.59   11.80
 -12   2  -6   90.99   14.00
  12   2   6   71.99   10.90
 -12  -2  -6   76.59   13.20
  12  -2   6   60.89   10.80
 -12  -2  -6  102.29   12.30
  12  -2   6   70.79   10.50
  12   2   7   14.30    4.60
 -12   2  -7   16.90    7.30
 -12   2  -7   23.80    7.10
 -12  -2  -7    9.70    6.30
  12  -2   7   16.50    4.40
  12   2   8    4.50    3.10
 -12   2  -8    2.90    5.60
  12  -2   8   -0.60    2.10
 -12  -2  -8   -1.00    5.20
  12   2   9    2.60    3.30
 -12   2  -9   -1.60    6.20
  12  -2   9   -3.60    2.50
 -12  -2  -9   -1.30    5.60
  12   3 -14   14.30    6.10
  12   3 -14    8.20    7.60
  12  -3 -14   18.80    7.70
 -12  -3  14   19.60    5.80
  12   3 -13   12.10    5.40
  12   3 -13    8.10    6.30
  12  -3 -13    4.20    5.80
 -12  -3  13    3.20    3.50
  12   3 -12    1.00    3.50
  12   3 -12   -2.60    4.20
 -12  -3  12    0.80    2.90
  12  -3 -12    3.80    4.50
  12   3 -11    3.50    4.50
  12  -3 -11    1.30    3.90
 -12  -3  11    0.10    2.60
  12   3 -10   43.80    9.40
  12  -3 -10   31.90    8.10
 -12  -3  10   27.20    5.90
  12   3  -9   71.59   10.40
  12   3  -9   62.59   11.80
  12  -3  -9   70.79   11.90
 -12  -3   9   66.19   10.00
  12  -3  -9   65.19   11.80
  12   3  -8   52.59    9.30
  12   3  -8   55.59   10.90
 -12  -3   8   79.59    9.70
  12  -3  -8   52.29   10.50
  12  -3  -8   62.99   11.00
  12   3  -7   12.40    4.40
  12   3  -7   21.50    5.80
  12  -3  -7   13.10    5.10
  12  -3  -7   19.50    5.70
 -12  -3   7    9.30    3.40
 -12  -3   7   22.10    5.00
  12   3  -6    1.00    2.80
  12   3  -6   -2.60    2.80
  12  -3  -6    2.90    2.10
  12  -3  -6    2.70    3.10
  12  -3  -6    1.80    3.40
 -12  -3   6    0.30    2.80
 -12  -3   6   -1.10    2.20
  12   3  -5  150.18   18.20
  12   3  -5  141.59   18.10
  12   3  -5  122.69   18.20
 -12  -3   5  131.19   16.70
  12  -3  -5  131.49   17.90
 -12  -3   5  105.59   16.40
  12  -3  -5  115.99   17.40
  12  -3  -5  160.88   16.40
  12   3  -4  261.57   29.50
  12   3  -4  241.68   29.10
  12   3  -4  262.47   28.80
  12  -3  -4  246.88   28.30
  12  -3  -4  233.38   28.80
 -12  -3   4  217.48   28.30
  12  -3  -4  247.78   28.90
 -12  -3   4  255.17   29.00
  12   3  -3  113.79   14.30
  12   3  -3   71.99   13.10
  12   3  -3   86.99   13.00
  12  -3  -3  100.89   13.60
 -12  -3   3  103.79   13.20
  12  -3  -3  104.69   12.40
  12  -3  -3  106.69   13.70
 -12  -3   3   81.09   13.20
  12   3  -2    7.00    3.50
  12   3  -2    4.40    2.70
 -12   3   2    2.40    2.60
  12  -3  -2    3.60    2.60
  12  -3  -2    1.30    1.90
  12  -3  -2    2.40    2.30
 -12  -3   2    2.30    3.00
 -12  -3   2    2.80    2.40
  12  -3  -2    0.60    2.50
  12   3  -1   28.60    6.10
 -12   3   1   42.20    6.30
  12   3  -1   28.90    6.30
 -12  -3   1   39.60    7.20
 -12  -3   1   43.20    6.70
  12  -3  -1   24.70    5.60
  12  -3  -1   44.70    6.60
  12  -3  -1   27.10    5.30
 -12   3   0    3.60    2.70
  12   3   0   -2.90    2.30
  12   3   0    0.60    2.30
 -12  -3   0    3.20    2.70
 -12  -3   0   -2.20    2.60
  12  -3   0    2.20    2.40
  12  -3   0    1.50    1.60
  12  -3   0   -3.20    1.80
  12   3   1    4.00    2.60
  12   3   1    0.70    2.80
 -12   3  -1    2.30    2.70
 -12   3  -1    2.50    3.10
  12  -3   1    5.60    2.80
 -12  -3  -1   -1.40    2.90
  12  -3   1    1.70    2.60
 -12  -3  -1    2.00    2.90
  12  -3   1    1.90    2.60
 -12   3  -2  104.69   15.70
  12   3   2  112.39   15.60
 -12   3  -2  112.19   15.90
  12   3   2  100.99   16.00
  12  -3   2  100.19   15.40
  12  -3   2  124.89   14.70
 -12  -3  -2  160.68   17.60
  12  -3   2  131.49   14.70
  12   3   3    5.80    3.70
 -12   3  -3    9.00    4.30
  12   3   3    6.70    3.30
 -12   3  -3    3.20    3.50
  12  -3   3   11.80    3.70
  12  -3   3    5.50    2.80
 -12  -3  -3    8.80    4.10
 -12  -3  -3   10.40    4.30
  12  -3   3    7.00    3.10
 -12   3  -4    5.30    3.90
  12   3   4    8.80    3.80
  12   3   4    7.30    4.80
 -12   3  -4   24.60    6.30
  12  -3   4   14.90    4.60
 -12  -3  -4   16.10    5.30
 -12  -3  -4    8.00    4.30
  12  -3   4   18.40    4.00
  12  -3   4   24.10    4.40
  12   3   5   45.70    8.30
 -12   3  -5   48.50    9.60
 -12   3  -5   62.69   10.60
 -12  -3  -5   57.39    9.00
 -12  -3  -5   61.09   10.40
  12  -3   5   45.70    7.70
  12  -3   5   42.40    8.10
  12  -3   5   49.90    7.70
 -12   3  -6   -4.10    4.10
 -12   3  -6    2.80    4.10
  12   3   6    0.70    3.00
  12  -3   6    4.20    2.80
 -12  -3  -6    8.90    5.10
  12  -3   6   -1.00    2.50
 -12   3  -7    5.50    5.20
 -12   3  -7   19.90    6.60
  12   3   7    5.90    3.30
  12  -3   7   11.80    3.90
 -12  -3  -7   16.00    6.40
  12  -3   7    9.50    4.40
 -12   3  -8    1.10    5.00
 -12   3  -8    5.80    6.40
  12   3   8    1.10    2.70
 -12  -3  -8    4.30    5.80
  12  -3   8   -0.40    2.30
 -12   3  -9    2.80    5.80
  12   3   9    2.40    3.30
  12  -3   9    1.00    2.60
 -12  -3  -9   -1.20    5.80
  12   4 -13   37.60    9.80
 -12  -4  13   57.49    8.50
  12  -4 -13   28.90   10.00
  12   4 -12   44.00   10.20
 -12  -4  12   67.49    9.30
  12  -4 -12   37.30   10.10
  12   4 -11    2.00    4.70
 -12  -4  11   -1.70    2.30
  12  -4 -11    0.60    4.70
  12   4 -10    5.50    5.00
  12  -4 -10    6.90    4.70
 -12  -4  10    6.60    3.30
  12   4  -9    5.40    4.80
  12   4  -9    3.60    3.30
 -12  -4   9   -2.50    2.40
  12  -4  -9   -6.00    3.00
  12   4  -8   14.10    5.30
  12   4  -8   15.30    4.80
 -12  -4   8   18.30    4.50
 -12  -4   8   18.80    5.30
  12  -4  -8   14.60    5.10
  12   4  -7    7.40    4.30
  12   4  -7   11.80    4.80
 -12  -4   7   12.40    4.30
  12  -4  -7   11.20    4.90
 -12  -4   7    9.80    3.70
  12   4  -6   11.40    5.20
  12   4  -6   14.50    5.20
 -12  -4   6   20.10    5.20
  12  -4  -6   16.90    5.20
  12  -4  -6   23.10    4.20
 -12  -4   6   27.30    5.10
  12   4  -5  178.08   21.70
  12   4  -5  151.18   22.40
  12   4  -5  178.88   21.10
 -12  -4   5  174.98   21.20
  12  -4  -5  149.09   21.20
  12  -4  -5  186.58   20.50
 -12  -4   5  174.28   20.80
  12   4  -4   29.30    6.70
  12   4  -4   21.50    5.90
  12   4  -4   29.50    5.80
  12  -4  -4   20.40    5.50
  12  -4  -4   25.70    5.00
 -12  -4   4   30.10    5.90
 -12  -4   4   19.10    5.00
  12   4  -3    4.90    3.10
 -12   4   3    2.20    2.90
  12   4  -3    4.70    3.70
  12   4  -3    1.60    3.10
 -12  -4   3    5.40    3.00
 -12  -4   3    4.70    3.30
  12  -4  -3    5.90    2.70
  12  -4  -3    3.50    2.80
 -12   4   2   17.10    3.90
  12   4  -2   17.30    4.60
  12   4  -2    9.60    4.40
  12   4  -2   15.60    4.90
  12  -4  -2    9.50    3.50
 -12  -4   2   13.00    4.00
  12  -4  -2   12.70    3.90
 -12  -4   2   20.40    5.10
  12   4  -1   -1.80    2.80
  12   4  -1    2.10    2.90
 -12   4   1    2.10    2.60
  12  -4  -1   -2.90    1.50
 -12  -4   1   -4.50    2.30
  12  -4  -1   -1.10    2.30
  12  -4  -1    2.50    2.40
 -12  -4   1    3.60    2.80
  12   4   0   25.20    6.00
 -12   4   0   20.70    5.00
  12   4   0   28.70    5.90
  12  -4   0   19.50    4.70
  12  -4   0   19.00    4.50
 -12  -4   0   24.10    5.50
  12  -4   0   31.20    5.60
 -12  -4   0   33.60    6.70
 -12   4  -1   -2.80    2.60
  12   4   1    2.00    2.60
  12   4   1    1.40    3.30
  12  -4   1    0.30    2.40
 -12  -4  -1   -1.90    2.50
  12  -4   1   -0.10    1.90
  12  -4   1    7.70    3.00
 -12   4  -2    1.10    3.00
 -12   4  -2    1.90    3.00
  12   4   2   -0.30    2.30
  12   4   2   -2.70    2.70
  12  -4   2   -2.10    2.10
  12  -4   2   -2.10    2.10
  12  -4   2   -2.10    1.80
 -12  -4  -2   -1.30    3.10
  12   4   3   -2.30    2.10
  12   4   3   -0.70    3.00
 -12   4  -3   -2.10    2.80
 -12   4  -3   -2.00    2.80
  12  -4   3    0.00    1.90
  12  -4   3   -1.10    2.20
  12  -4   3    0.00    2.30
 -12  -4  -3   -1.20    2.90
 -12   4  -4   11.90    4.70
  12   4   4   16.20    4.60
 -12   4  -4   24.60    6.00
  12  -4   4   22.40    5.30
 -12  -4  -4   18.20    5.50
  12  -4   4   11.20    3.70
  12  -4   4   18.70    4.40
 -12  -4  -4   20.00    5.80
 -12   4  -5   16.40    5.50
 -12   4  -5   19.90    6.50
  12   4   5   16.90    4.90
 -12  -4  -5   31.60    7.00
 -12  -4  -5   23.70    5.80
  12  -4   5   20.00    5.10
  12  -4   5   11.90    3.80
  12  -4   5   20.80    5.10
  12   4   6    5.00    3.30
 -12   4  -6   -2.40    4.00
 -12   4  -6   -0.10    4.20
  12  -4   6   -6.60    2.80
  12  -4   6   -0.70    2.80
  12  -4   6    3.60    2.40
 -12  -4  -6    0.60    4.70
 -12   4  -7   14.70    5.40
  12   4   7    8.20    3.70
 -12   4  -7   16.90    6.50
 -12  -4  -7   11.00    6.20
  12  -4   7    5.00    2.80
  12  -4   7   14.60    4.30
 -12   4  -8    1.60    5.50
  12   4   8    7.20    3.70
 -12   4  -8    2.10    5.50
  12  -4   8   -0.30    2.50
 -12  -4  -8   -3.70    5.20
 -12   4  -9    1.10    6.20
  12  -5 -13    7.60    6.80
  12   5 -12   36.70    9.30
 -12  -5  12   46.20    7.90
  12  -5 -12   36.50   10.30
  12   5 -11    2.00    4.50
  12  -5 -11    4.70    6.30
 -12  -5  11    3.40    3.30
  12   5 -10   -1.70    3.80
  12   5 -10    0.90    3.10
 -12  -5  10   -1.00    2.50
  12  -5 -10   -6.50    4.80
  12   5  -9   -3.20    3.10
  12   5  -9    1.20    3.60
 -12  -5   9   -2.60    2.50
  12  -5  -9   -0.80    4.40
  12   5  -8   -1.30    3.40
  12   5  -8   -0.10    3.50
  12  -5  -8    1.80    4.00
 -12  -5   8   -1.20    3.20
 -12  -5   8   -3.40    2.40
  12   5  -7    4.00    4.50
  12   5  -7   11.80    4.60
 -12  -5   7   15.10    4.50
 -12  -5   7   15.10    5.00
  12  -5  -7    1.70    4.00
  12   5  -6    1.20    3.70
  12   5  -6    2.10    3.70
  12  -5  -6    3.50    4.10
 -12  -5   6    3.60    3.10
 -12  -5   6   10.10    4.00
  12   5  -5   23.30    5.60
  12   5  -5    8.50    4.70
  12   5  -5   16.40    5.50
 -12  -5   5   17.20    5.00
  12  -5  -5   17.20    4.10
 -12  -5   5   20.80    4.90
  12  -5  -5   21.20    5.60
  12   5  -4    4.80    3.60
  12   5  -4    4.50    3.50
  12   5  -4    3.50    3.50
  12  -5  -4    1.10    2.20
 -12  -5   4    7.70    3.40
 -12  -5   4   -2.00    2.60
  12  -5  -4    2.40    3.10
  12   5  -3   20.30    5.90
  12   5  -3   24.20    5.90
 -12   5   3   30.00    4.80
  12   5  -3   24.90    6.10
  12  -5  -3   30.40    5.20
 -12  -5   3   13.50    4.80
 -12  -5   3   18.10    5.10
  12  -5  -3   19.90    5.50
 -12   5   2   14.60    4.10
  12   5  -2   18.00    5.50
  12   5  -2   23.60    6.30
  12   5  -2   11.90    4.40
 -12  -5   2   16.70    4.90
  12  -5  -2   23.50    5.40
 -12  -5   2   17.10    5.10
  12  -5  -2   22.60    4.60
 -12   5   1   20.80    4.70
  12   5  -1   19.30    5.90
  12   5  -1   22.90    5.40
  12   5  -1   16.90    5.40
  12  -5  -1   25.10    5.60
  12  -5  -1   25.00    5.00
 -12  -5   1   20.70    5.40
 -12  -5   1   26.30    6.10
  12   5   0   42.70    7.90
  12   5   0   56.79    9.20
  12  -5   0   43.70    7.00
 -12  -5   0   53.59    8.70
  12  -5   0   40.00    7.40
  12  -5   0   49.40    8.00
 -12   5  -1    4.90    3.20
  12   5   1    5.50    4.30
  12   5   1    4.00    3.40
  12  -5   1    5.20    2.60
  12  -5   1    6.30    3.40
 -12  -5  -1    3.30    3.50
  12  -5   1    7.10    3.40
  12   5   2   73.49   11.40
 -12   5  -2   62.49   10.20
  12   5   2   58.59   10.30
 -12   5  -2   66.39   10.30
  12  -5   2   65.39    9.30
  12  -5   2   69.49   10.40
 -12  -5  -2   89.09   11.90
  12  -5   2   61.99    9.70
 -12   5  -3   15.30    5.30
 -12   5  -3   25.50    6.30
  12   5   3   36.00    7.90
  12   5   3   19.60    5.60
 -12  -5  -3   38.80    7.20
  12  -5   3   31.20    6.30
  12  -5   3   37.30    6.20
  12  -5   3   37.60    5.90
 -12   5  -4   13.70    5.10
  12   5   4   18.00    5.00
 -12   5  -4   15.90    5.30
  12  -5   4   17.40    4.80
  12  -5   4   17.20    4.60
 -12  -5  -4   25.10    5.90
  12  -5   4   14.60    4.00
 -12   5  -5    7.90    4.70
 -12   5  -5   18.60    6.00
  12   5   5    9.20    4.10
  12  -5   5   16.90    4.90
  12  -5   5   22.10    5.00
  12  -5   5   15.70    4.00
 -12   5  -6    5.70    4.60
 -12   5  -6    3.50    4.00
  12   5   6   -2.80    2.70
 -12  -5  -6    6.80    4.60
  12  -5   6    2.00    3.50
  12  -5   6    3.40    2.80
  12  -5   6    1.00    3.70
 -12   5  -7   12.30    6.10
  12   5   7    6.90    4.00
 -12   5  -7   18.20    6.30
  12  -5   7    4.80    3.90
  12  -5   7    5.50    3.00
 -12  -5  -7   16.40    6.40
  12  -5   7    5.90    4.50
  12   5   8   -1.20    3.30
 -12   5  -8   -2.20    5.00
 -12   5  -8    4.40    5.50
  12  -5   8    1.30    4.40
 -12  -5  -8    2.80    5.70
  12  -5   8    4.50    3.10
  12  -6 -12   -7.40    6.50
  12   6 -11    1.30    4.80
 -12  -6  11    9.50    4.10
  12  -6 -11   -1.60    5.60
  12   6 -10   16.20    5.40
  12   6 -10    6.50    5.10
  12  -6 -10   13.90    6.90
 -12  -6  10   14.60    4.70
  12   6  -9    0.20    3.90
  12   6  -9    5.40    4.70
 -12  -6   9   -2.20    3.20
 -12  -6   9   -0.40    3.80
  12  -6  -9    2.10    5.00
  12   6  -8   -4.70    3.60
  12   6  -8   -1.60    3.20
  12  -6  -8    0.90    4.40
 -12  -6   8   -1.80    2.60
 -12  -6   8   -6.20    3.40
  12   6  -7    6.60    4.00
  12   6  -7    2.40    4.00
  12  -6  -7    1.60    4.60
 -12  -6   7    0.30    3.30
 -12  -6   7    8.10    3.50
  12   6  -6    6.00    4.60
  12   6  -6    8.70    4.60
 -12  -6   6    2.00    3.40
  12  -6  -6    8.70    4.70
 -12  -6   6    5.30    3.40
  12   6  -5   17.20    6.10
  12   6  -5   12.30    5.10
  12   6  -5   16.90    5.80
  12  -6  -5   16.40    5.40
 -12  -6   5   18.80    5.00
  12  -6  -5   11.40    4.70
 -12  -6   5   19.00    5.50
  12   6  -4    6.80    4.00
  12   6  -4    2.00    4.00
  12   6  -4   11.30    4.60
 -12   6   4    0.10    2.10
  12  -6  -4    4.60    2.60
  12  -6  -4    3.50    4.00
 -12  -6   4   13.00    4.90
 -12  -6   4    3.90    3.40
  12   6  -3   32.90    7.40
  12   6  -3   26.20    7.10
 -12   6   3   39.60    6.10
  12   6  -3   32.80    7.00
 -12  -6   3   39.90    7.20
 -12  -6   3   30.10    6.90
  12  -6  -3   44.00    6.50
  12  -6  -3   22.50    6.20
 -12   6   2  158.58   16.70
  12   6  -2  138.59   19.00
  12   6  -2  109.49   18.10
  12   6  -2  169.98   19.30
  12  -6  -2  114.79   17.70
  12  -6  -2  132.29   16.70
 -12  -6   2  125.59   17.70
 -12  -6   2  135.29   18.80
 -12   6   1   31.70    5.60
  12   6  -1   22.90    6.70
  12   6  -1   23.70    6.30
  12   6  -1   26.40    6.20
  12  -6  -1   23.90    5.20
 -12  -6   1   27.80    6.80
  12  -6  -1   17.90    5.70
  12   6   0    2.50    3.80
 -12   6   0   -1.10    2.60
  12   6   0   -3.90    2.80
  12   6   0   -2.30    2.90
 -12  -6   0    9.70    4.10
  12  -6   0    0.10    3.00
  12  -6   0   -0.60    2.70
  12   6   1   -3.70    3.40
 -12   6  -1   -2.60    2.50
  12   6   1    1.50    2.90
  12  -6   1   -2.50    2.70
 -12  -6  -1   -1.70    3.10
  12  -6   1   -2.10    2.70
  12  -6   1    1.90    2.40
  12   6   2    5.30    4.30
  12   6   2    6.70    3.80
 -12   6  -2    2.30    3.10
  12  -6   2    3.00    3.20
 -12  -6  -2    8.40    4.20
  12  -6   2    3.70    2.70
  12  -6   2    1.60    3.20
  12   6   3   31.30    6.90
 -12   6  -3   28.00    6.60
 -12   6  -3   32.90    6.90
 -12  -6  -3   35.70    7.50
  12  -6   3   31.50    5.80
  12  -6   3   34.20    6.80
  12  -6   3   40.60    6.80
  12   6   4    7.70    3.70
 -12   6  -4    7.20    4.10
 -12   6  -4    5.40    4.30
  12  -6   4    7.30    3.70
  12  -6   4    5.20    3.00
  12  -6   4    3.50    3.30
  12   6   5   20.20    5.20
 -12   6  -5   10.90    5.40
 -12   6  -5   11.00    5.10
  12  -6   5   12.30    4.00
  12  -6   5   14.10    4.40
  12  -6   5   12.60    4.50
  12   6   6    3.90    3.30
 -12   6  -6    6.40    4.50
 -12   6  -6   -3.20    3.90
  12  -6   6    0.90    2.40
  12  -6   6    0.70    3.30
  12  -6   6   -0.20    3.60
 -12   6  -7    1.60    4.80
  12   6   7    1.40    3.60
 -12   6  -7   -1.40    4.80
  12  -6   7    1.50    3.70
  12  -6   7    2.10    2.60
  12  -6   7   -5.60    3.50
  12   7 -10   13.60    5.10
 -12  -7  10    4.60    4.30
  12  -7 -10    4.90    5.90
  12   7  -9   -5.80    3.70
 -12  -7   9   -4.30    3.60
  12  -7  -9   -4.20    6.00
 -12  -7   9   -2.60    3.40
  12   7  -8    4.90    4.90
 -12  -7   8    1.20    4.20
  12  -7  -8    0.60    5.10
 -12  -7   8    4.80    3.60
  12   7  -7   24.60    7.00
  12  -7  -7   21.40    7.30
 -12  -7   7   24.20    6.00
 -12  -7   7   34.20    7.10
  12   7  -6    7.70    5.00
  12  -7  -6    6.00    5.60
 -12  -7   6   -0.70    3.10
 -12  -7   6   17.50    5.20
  12   7  -5   10.10    5.20
  12   7  -5   24.40    6.00
 -12  -7   5    6.40    4.60
 -12  -7   5    8.40    4.00
  12  -7  -5   13.90    5.80
  12   7  -4    3.40    4.10
 -12   7   4    0.50    2.30
  12   7  -4    6.10    4.40
 -12  -7   4   -0.50    3.50
  12  -7  -4   -2.60    4.10
  12  -7  -4    0.80    2.60
 -12  -7   4   -0.80    2.90
  12   7  -3   11.70    4.60
  12   7  -3    9.60    4.80
 -12   7   3    7.90    3.10
 -12  -7   3   18.50    4.90
  12  -7  -3    3.60    4.30
  12  -7  -3    5.10    3.10
 -12  -7   3    6.90    4.70
 -12   7   2   53.99    8.50
  12   7  -2   70.19   10.50
  12   7  -2   49.70   10.00
  12  -7  -2   69.19    9.20
 -12  -7   2   43.00    9.50
  12  -7  -2   47.20    9.50
 -12   7   1  131.99   17.00
  12   7  -1  118.89   18.30
  12   7  -1  118.99   19.10
 -12  -7   1  161.78   19.70
  12  -7  -1  149.49   17.50
  12  -7  -1  149.59   19.00
  12   7   0   88.29   12.20
  12   7   0   59.99   11.70
 -12   7   0   71.49   10.60
  12  -7   0   68.49   10.70
 -12  -7   0   77.19   11.90
  12  -7   0   68.69   11.30
  12   7   1    1.90    3.60
  12   7   1   -4.80    3.70
 -12   7  -1    0.90    3.20
 -12  -7  -1    1.30    3.80
  12  -7   1   -0.80    3.40
  12  -7   1    4.40    3.50
 -12   7  -2    3.10    3.30
  12   7   2    5.40    4.10
  12  -7   2    7.40    4.20
 -12  -7  -2    5.30    4.20
  12  -7   2    4.70    3.60
  12  -7   2    3.30    3.70
  12   7   3    3.40    3.50
 -12   7  -3   -0.70    3.20
 -12   7  -3    4.60    3.80
  12  -7   3    1.20    3.50
  12  -7   3    0.70    3.40
 -12  -7  -3    2.80    4.10
  12  -7   3    5.50    3.20
  12   7   4    3.90    3.50
 -12   7  -4    1.50    3.80
 -12   7  -4    4.60    4.30
  12  -7   4    1.90    2.90
  12  -7   4    7.40    3.90
  12  -7   4    1.30    3.60
 -12   7  -5   10.70    4.70
  12   7   5    3.90    3.70
 -12   7  -5   -1.70    3.60
  12  -7   5    0.10    3.50
  12  -7   5    8.20    4.20
  12  -7   5   -0.60    2.50
  12   8  -8    1.20    4.80
  12  -8  -8    0.10    6.30
 -12  -8   8   -2.40    4.50
 -12  -8   8   -6.40    3.10
  12   8  -7    7.80    5.20
 -12  -8   7    4.10    4.00
 -12  -8   7    4.10    4.20
  12  -8  -7   -7.90    5.50
  12   8  -6   15.60    6.70
  12  -8  -6   20.30    7.20
 -12  -8   6   22.00    5.60
 -12  -8   6   19.30    5.80
  12   8  -5   -5.20    3.80
  12   8  -5    5.70    5.00
  12  -8  -5    1.90    4.90
 -12  -8   5    1.80    3.90
 -12  -8   5   -4.30    3.40
  12   8  -4   -2.20    3.80
  12   8  -4   -3.70    3.60
 -12   8   4    0.50    2.60
 -12  -8   4    3.00    4.00
 -12  -8   4    5.50    4.20
  12  -8  -4   -2.80    4.50
  12   8  -3    1.80    4.10
  12   8  -3   -1.20    3.80
 -12   8   3   -2.10    2.60
  12  -8  -3    1.60    2.90
 -12  -8   3   -1.70    4.00
  12  -8  -3   -3.90    4.60
  12   8  -2   10.80    4.90
 -12   8   2    5.90    3.60
  12   8  -2    5.20    4.60
  12  -8  -2    5.00    4.70
  12  -8  -2    6.00    3.30
 -12  -8   2    8.40    5.00
  12   8  -1  105.69   15.80
 -12   8   1   93.09   13.00
  12   8  -1   89.49   14.20
  12  -8  -1   92.09   14.30
  12  -8  -1  109.59   13.40
 -12  -8   1   72.29   13.30
 -12   8   0    5.80    3.50
  12   8   0   14.50    5.00
  12   8   0   11.70    5.30
  12  -8   0    4.60    4.40
 -12  -8   0    0.90    4.10
  12  -8   0    1.90    3.30
  12   8   1   -1.00    4.20
  12   8   1   11.00    4.90
 -12   8  -1    5.90    3.50
  12  -8   1   -2.70    3.10
 -12  -8  -1    1.50    3.90
  12  -8   1   10.80    5.10
  12   8   2    0.10    3.80
 -12   8  -2   11.20    4.40
  12  -8   2    4.60    4.30
 -12  -8  -2    4.30    4.80
  12  -8   2    1.60    3.70
  12   8   3    1.20    3.50
 -12   8  -3    1.60    4.00
 -12   8  -3    5.00    4.20
  12  -8   3    0.30    3.60
  12  -8   3    2.30    4.00
 -12   9   4   -0.70    2.90
  12   9  -4    6.40    5.00
  12   9  -4   -2.20    5.10
  12  -9  -4    3.60    5.70
 -12  -9   4    4.10    5.00
  12   9  -3    1.30    4.40
 -12   9   3    1.00    3.30
  12   9  -3   -2.50    4.40
  12  -9  -3    2.60    4.90
 -12  -9   3   -3.40    4.20
 -12   9   2   31.20    6.40
  12   9  -2   38.00    8.30
  12   9  -2   35.10    8.60
  12  -9  -2   32.70    6.50
  12  -9  -2   34.80    8.20
 -12  -9   2   26.40    7.50
 -12   9   1   -2.80    3.40
  12   9  -1   -2.10    5.10
  12   9  -1    7.60    5.10
  12  -9  -1    8.80    6.00
  12  -9  -1    3.60    3.50
 -12  -9   1    3.00    4.70
  13   0 -14   11.90    5.60
  13   0 -14    5.70    7.50
  13   0 -13    6.30    5.00
  13   0 -13   -1.60    5.70
  13   0 -12    2.20    4.90
  13   0 -12   -3.10    4.60
 -13   0  12    5.00    3.30
  13   0 -11    6.20    5.40
 -13   0  11   -0.20    2.50
  13   0 -11   -4.10    3.60
 -13   0  10  550.04   58.89
  13   0 -10  518.55   60.69
  13   0 -10  492.95   60.09
  13   0  -9   -4.40    3.90
  13   0  -9    6.20    4.70
  13   0  -8   16.90    5.80
  13   0  -8   22.80    4.70
  13   0  -8   25.50    6.90
  13   0  -7   -1.90    2.10
  13   0  -7   -2.50    3.10
  13   0  -7    5.10    3.70
  13   0  -6    3.30    3.00
  13   0  -6    7.00    3.90
  13   0  -6    9.80    4.20
  13   0  -5    3.10    3.20
  13   0  -5    0.70    2.50
  13   0  -5    1.50    3.00
  13   0  -4   24.10    5.80
  13   0  -4   22.90    5.20
  13   0  -3    1.40    2.30
  13   0  -3   -2.00    2.40
  13   0  -3   -0.90    2.50
  13   0  -2   10.80    3.80
  13   0  -2    5.70    2.90
  13   0  -1   -1.00    2.50
  13   0  -1    0.60    2.00
  13   0   0    2.60    2.40
  13   0   0    1.80    2.90
 -13   0   0   -1.40    3.20
  13   0   1   -1.60    2.50
 -13   0  -1   -4.40    3.40
 -13   0  -1   -0.70    3.10
  13   0   1   -0.20    2.40
  13   0   2   -2.70    2.40
  13   0   2    5.50    3.00
 -13   0  -2    3.90    3.70
  13   0   3   -1.40    2.70
 -13   0  -3   -0.20    3.60
  13   0   3    0.50    2.60
  13   0   4   71.89   11.00
 -13   0  -4   80.89   13.20
  13   0   4   64.79   11.60
  13   0   5   -0.20    3.40
 -13   0  -5    0.90    4.30
  13   0   5   -5.60    2.20
 -13   0  -6   -5.30    4.60
  13   0   6    4.30    3.60
 -13   0  -7    0.90    5.20
  13   0   7   -1.70    2.70
 -13   0  -8    6.70    6.50
  13   0   8    1.20    3.20
  13   0   9    4.60    3.40
 -13   0  -9   -4.40    6.40
  13   1 -14    2.80    5.50
  13   1 -14    9.10    6.90
  13  -1 -14    7.40    7.30
  13  -1 -14   14.40    6.40
  13   1 -13    0.20    5.70
  13   1 -13    0.00    4.70
  13  -1 -13   -4.00    5.20
 -13  -1  13   -3.80    4.20
  13  -1 -13   -7.40    3.60
  13   1 -12   -0.50    4.80
  13   1 -12   -2.10    3.90
  13  -1 -12    0.20    4.50
 -13  -1  12    1.40    3.10
  13  -1 -12    3.70    5.60
  13   1 -11   23.70    7.30
  13   1 -11    6.20    5.10
 -13   1  11   19.50    4.50
  13  -1 -11    5.50    5.30
  13  -1 -11   28.30    7.10
 -13  -1  11   25.10    5.10
 -13   1  10   10.30    3.90
  13   1 -10   26.90    6.40
  13   1 -10   16.50    6.30
  13  -1 -10   14.70    5.50
 -13  -1  10   19.40    4.40
  13  -1 -10   24.70    7.10
  13   1  -9   53.09    9.40
  13   1  -9   59.39   10.60
  13  -1  -9   55.59   10.40
 -13  -1   9   54.89    8.10
  13  -1  -9   31.30    8.50
  13   1  -8    1.10    3.40
  13   1  -8   -0.70    3.40
  13   1  -8    2.90    2.70
  13  -1  -8    1.10    3.70
 -13  -1   8    1.40    2.20
  13  -1  -8    2.70    3.50
  13   1  -7   -1.50    5.20
  13   1  -7   -2.70    3.10
  13   1  -7   -1.60    2.40
 -13  -1   7   -4.20    1.40
  13  -1  -7   -4.20    2.80
  13  -1  -7   -0.70    2.10
  13  -1  -7    4.70    3.90
  13   1  -6   41.80    7.60
  13   1  -6   42.00    8.50
  13  -1  -6   50.69    8.90
  13  -1  -6   45.00    7.30
  13  -1  -6   38.00    7.80
  13   1  -5   68.39   13.20
  13   1  -5  101.19   13.60
  13  -1  -5   85.49   13.40
  13  -1  -5  112.89   13.60
  13  -1  -5  112.39   14.70
  13   1  -4   -1.30    2.30
  13   1  -4    2.90    3.00
  13   1  -4   -3.10    2.70
  13  -1  -4    1.10    2.80
  13  -1  -4    3.20    2.60
  13  -1  -4    0.10    2.90
  13   1  -3    9.70    3.90
  13   1  -3    8.30    3.30
  13   1  -3   13.80    4.30
  13  -1  -3   13.20    3.90
  13  -1  -3   11.30    3.90
  13  -1  -3   13.40    4.10
  13  -1  -3   17.40    4.80
  13   1  -2    3.70    3.00
  13   1  -2    4.00    2.60
 -13   1   2   -0.90    2.60
  13  -1  -2    2.60    2.10
  13  -1  -2    3.60    2.90
  13  -1  -2    0.20    2.70
  13   1  -1   24.30    6.10
 -13   1   1   16.70    5.10
  13   1  -1   29.90    5.70
  13  -1  -1   19.90    5.10
  13  -1  -1   23.30    4.90
 -13   1   0  440.66   49.10
  13   1   0  442.46   49.40
  13   1   0  424.16   48.80
 -13   1   0  455.15   48.90
  13  -1   0  413.86   49.00
  13  -1   0  409.06   48.50
 -13   1  -1   30.90    6.80
  13   1   1   32.30    7.10
  13   1   1   30.40    6.90
 -13   1  -1   40.50    7.80
  13  -1   1   41.10    7.60
 -13  -1  -1   53.69    8.50
  13  -1   1   45.40    7.00
  13   1   2   18.30    5.40
  13   1   2   16.10    4.50
 -13   1  -2    8.40    4.30
 -13   1  -2   24.20    5.90
 -13  -1  -2    9.30    4.70
  13  -1   2   13.10    4.30
  13  -1   2   20.00    4.40
 -13   1  -3    2.30    3.70
 -13   1  -3    6.80    4.40
  13   1   3    6.10    3.70
  13   1   3    3.70    2.90
  13  -1   3    0.20    3.10
 -13  -1  -3    1.10    4.30
  13  -1   3    1.70    2.50
 -13   1  -4    7.90    4.60
  13   1   4    4.80    3.40
 -13   1  -4    3.80    4.30
  13   1   4    6.10    3.90
  13  -1   4    6.10    3.80
  13  -1   4    1.10    2.50
 -13  -1  -4   17.20    6.30
  13   1   5   -1.90    2.60
  13   1   5    1.10    3.90
 -13   1  -5   -2.60    4.00
 -13   1  -5   -4.80    4.10
 -13  -1  -5    8.90    5.90
  13  -1   5    3.30    3.80
  13  -1   5    4.60    3.30
 -13   1  -6   13.80    6.70
  13   1   6   23.40    5.40
 -13  -1  -6   10.60    6.30
 -13  -1  -6   23.70    6.50
  13  -1   6   25.30    5.50
  13  -1   6   20.30    6.50
  13   1   7   -1.20    3.00
 -13   1  -7    4.80    6.00
 -13  -1  -7    7.10    5.90
  13  -1   7   -3.20    2.40
  13   1   8   -1.80    2.90
 -13   1  -8    6.40    6.10
 -13  -1  -8   -7.60    5.00
  13  -1   8   -1.60    3.00
 -13   1  -9    4.80    6.90
  13   1   9    0.40    3.40
  13  -1   9    4.90    3.90
 -13  -1  -9   10.30    7.70
  13   2 -14    5.30    5.20
  13  -2 -14    8.20    5.90
  13   2 -13    1.80    6.10
  13   2 -13   -4.20    3.80
  13  -2 -13    3.70    6.90
 -13  -2  13   -2.30    3.10
  13  -2 -13   -1.70    4.50
  13   2 -12   -4.60    5.40
  13   2 -12    2.20    4.20
  13  -2 -12   -7.90    5.20
  13  -2 -12   -1.50    4.40
 -13  -2  12   -2.80    3.00
 -13   2  11    0.90    2.30
  13   2 -11    0.60    4.90
  13   2 -11   -6.20    3.20
  13  -2 -11    6.30    4.70
  13  -2 -11   -6.30    4.70
 -13  -2  11   -0.80    2.50
  13   2 -10   29.20    8.50
  13  -2 -10   20.50    6.80
 -13  -2  10   35.10    6.20
  13  -2 -10   34.30    8.40
  13   2  -9    3.60    3.30
  13   2  -9    4.60    5.10
  13  -2  -9    9.70    4.80
  13  -2  -9    8.90    5.30
 -13  -2   9    7.70    3.30
  13   2  -8   -4.10    3.10
  13   2  -8   -0.40    2.50
  13  -2  -8   -2.20    3.80
 -13  -2   8    0.70    2.40
  13  -2  -8    3.80    3.70
  13   2  -7    2.80    3.10
  13   2  -7    2.50    4.20
 -13  -2   7    2.60    2.60
  13  -2  -7    4.30    4.00
  13  -2  -7    2.10    2.40
  13  -2  -7    3.20    3.70
 -13  -2   7    4.60    3.10
  13   2  -6   12.60    4.50
  13   2  -6   21.80    6.00
 -13  -2   6   22.50    4.60
  13  -2  -6   16.90    4.10
  13  -2  -6   15.10    5.10
  13  -2  -6   21.80    5.80
 -13  -2   6   15.80    4.70
  13   2  -5   -1.00    2.80
  13   2  -5    4.10    3.00
 -13  -2   5    1.60    2.30
  13  -2  -5   -1.30    2.20
  13  -2  -5    1.90    3.20
 -13  -2   5    3.70    3.30
  13  -2  -5    0.00    3.40
  13   2  -4   21.40    6.00
  13   2  -4   17.50    5.40
  13   2  -4   31.20    5.90
  13  -2  -4   27.60    5.40
  13  -2  -4   35.90    6.40
  13  -2  -4   27.60    6.40
 -13  -2   4   27.40    5.30
  13   2  -3    2.30    2.70
  13   2  -3    0.90    2.50
  13   2  -3    3.90    3.30
  13  -2  -3   -2.10    2.70
  13  -2  -3    1.10    2.40
  13  -2  -3   -4.10    2.40
 -13  -2   3    4.00    2.60
  13   2  -2   13.30    4.00
 -13   2   2    3.60    2.80
  13   2  -2    4.70    3.00
  13  -2  -2    3.50    3.10
  13  -2  -2   -1.00    2.50
 -13  -2   2    8.20    3.30
  13  -2  -2    2.30    2.50
  13   2  -1   27.80    5.60
 -13   2   1   21.10    5.10
  13   2  -1   18.80    5.30
  13  -2  -1   31.10    5.70
 -13  -2   1   29.40    5.50
  13  -2  -1   21.90    5.20
  13  -2  -1   22.10    4.80
 -13   2   0   33.80    7.30
  13   2   0   43.00    8.10
  13   2   0   38.00    7.30
 -13   2   0   45.70    7.80
  13  -2   0   41.80    7.60
  13  -2   0   47.80    7.20
  13  -2   0   40.00    7.20
 -13  -2   0   75.59    9.10
  13   2   1  161.58   20.00
 -13   2  -1  172.68   20.30
 -13   2  -1  181.78   20.40
  13   2   1  137.79   20.70
 -13  -2  -1  159.08   19.90
  13  -2   1  157.78   20.00
  13  -2   1  151.58   19.20
  13  -2   1  172.08   19.70
  13   2   2   -1.70    2.10
  13   2   2    0.50    3.40
 -13   2  -2    4.70    3.90
 -13   2  -2   10.70    4.40
  13  -2   2    1.80    2.90
 -13  -2  -2   -0.90    3.20
  13  -2   2    1.40    2.40
  13   2   3   -0.50    2.50
 -13   2  -3    4.20    4.10
  13   2   3   10.90    4.70
 -13   2  -3    5.90    4.50
 -13  -2  -3    7.10    4.40
  13  -2   3    2.80    3.20
 -13  -2  -3    4.80    4.10
  13  -2   3    8.00    3.20
  13   2   4  208.88   24.70
 -13   2  -4  191.38   25.90
 -13   2  -4  191.78   26.50
  13   2   4  204.28   25.10
  13  -2   4  196.38   24.00
 -13  -2  -4  212.08   25.70
  13  -2   4  174.68   24.50
 -13  -2  -4  230.28   25.40
 -13   2  -5   97.49   16.30
 -13   2  -5  120.19   18.00
  13   2   5   97.89   15.50
 -13  -2  -5  146.99   18.60
  13  -2   5  134.99   15.20
  13  -2   5   89.09   15.60
 -13  -2  -5  138.29   17.10
  13   2   6   18.50    5.40
 -13   2  -6   13.70    6.70
 -13   2  -6   24.50    7.20
  13  -2   6   24.20    5.60
 -13  -2  -6   20.10    7.20
  13  -2   6   17.40    5.30
 -13  -2  -6   22.80    6.70
 -13   2  -7   -1.40    5.10
  13   2   7    1.80    3.40
 -13   2  -7   10.20    6.10
  13  -2   7    3.90    3.30
 -13  -2  -7    3.40    5.40
 -13   2  -8    9.90    6.80
  13   2   8   10.10    4.20
 -13  -2  -8    8.70    6.70
  13  -2   8    1.00    3.00
  13   3 -13    9.70    6.30
  13  -3 -13    2.50    6.20
 -13  -3  13    3.70    3.90
  13   3 -12   -4.90    4.80
 -13  -3  12    1.30    2.90
  13  -3 -12    0.60    5.30
  13   3 -11   11.20    6.20
  13  -3 -11    8.90    5.80
 -13  -3  11   18.50    4.80
  13   3 -10    4.60    4.40
 -13  -3  10    0.80    2.90
  13  -3 -10    1.60    4.70
  13   3  -9   43.40    7.60
  13   3  -9   46.50    9.60
 -13  -3   9   42.40    7.40
  13  -3  -9   37.40    8.80
  13   3  -8    8.10    5.10
  13   3  -8   16.20    4.60
 -13  -3   8   13.20    4.10
  13  -3  -8   10.10    5.10
  13   3  -7    3.00    3.70
  13   3  -7    4.30    3.60
  13  -3  -7    7.40    4.20
  13  -3  -7   -0.20    4.40
 -13  -3   7    4.40    2.70
 -13  -3   7    3.00    3.00
  13   3  -6   19.40    5.80
  13   3  -6   23.70    5.90
  13  -3  -6   25.50    6.50
  13  -3  -6   28.50    5.10
 -13  -3   6   19.90    4.90
  13  -3  -6   21.20    6.10
 -13  -3   6   22.20    5.70
  13   3  -5    2.00    3.10
  13   3  -5    0.80    2.80
  13  -3  -5   -0.90    3.10
  13  -3  -5    4.50    3.30
  13  -3  -5    2.10    2.40
 -13  -3   5   -1.70    2.40
 -13  -3   5   -3.30    2.00
  13   3  -4   38.30    7.80
  13   3  -4   45.20    7.30
  13   3  -4   37.80    7.50
  13  -3  -4   33.50    6.40
  13  -3  -4   42.50    7.50
 -13  -3   4   23.20    5.80
  13  -3  -4   35.50    7.10
 -13  -3   4   44.10    7.60
  13   3  -3   14.50    4.20
  13   3  -3   -1.80    2.80
  13   3  -3    8.00    4.20
 -13  -3   3    8.50    3.40
  13  -3  -3   11.70    3.90
  13  -3  -3    2.60    3.20
 -13  -3   3    6.30    3.50
  13  -3  -3    8.20    3.30
  13   3  -2    3.70    3.40
  13   3  -2    5.30    3.30
  13  -3  -2    2.10    2.50
  13  -3  -2   -0.40    2.70
 -13  -3   2    3.40    2.90
  13  -3  -2    6.60    3.00
 -13  -3   2    3.00    3.10
  13   3  -1    7.80    3.80
 -13   3   1    2.40    3.10
  13   3  -1    8.30    3.30
  13  -3  -1    4.70    2.70
 -13  -3   1    3.20    3.20
  13  -3  -1    4.20    3.10
  13  -3  -1    6.20    3.30
 -13  -3   1    8.30    4.20
 -13   3   0    8.80    3.80
 -13   3   0    6.90    3.40
  13   3   0   10.90    3.70
  13   3   0    6.10    3.70
  13  -3   0    9.50    3.40
  13  -3   0   14.00    4.00
 -13  -3   0   10.10    4.30
 -13  -3   0   10.80    4.30
  13  -3   0    9.00    3.80
  13   3   1   55.09    9.40
  13   3   1   43.40    8.30
 -13   3  -1   49.80    8.50
 -13   3  -1   44.30    8.40
  13  -3   1   48.50    8.50
 -13  -3  -1   59.39    9.80
  13  -3   1   49.30    7.80
  13  -3   1   50.59    7.90
  13   3   2   13.10    4.90
 -13   3  -2   14.30    4.90
  13   3   2    6.40    3.70
 -13   3  -2   20.50    5.30
  13  -3   2    9.10    3.90
  13  -3   2    7.70    3.20
 -13  -3  -2   17.30    5.40
  13  -3   2    9.00    3.40
  13   3   3   -2.80    2.50
 -13   3  -3    7.50    4.20
  13   3   3   -1.00    3.50
 -13   3  -3    3.30    3.50
  13  -3   3   -1.10    2.70
 -13  -3  -3    3.10    3.60
  13  -3   3   -0.70    2.20
  13  -3   3    3.50    2.80
 -13   3  -4   67.49   11.20
  13   3   4   59.99   12.30
 -13   3  -4   69.59   10.60
  13   3   4   55.09    9.50
  13  -3   4   54.49    8.80
 -13  -3  -4   55.69   10.10
 -13  -3  -4   56.99   10.60
  13  -3   4   56.79    9.70
 -13   3  -5   28.40    7.00
  13   3   5   32.70    6.60
 -13   3  -5   28.40    7.40
  13  -3   5   18.90    5.90
  13  -3   5   26.10    5.70
 -13  -3  -5   34.00    7.50
 -13  -3  -5   45.90    8.80
 -13   3  -6    6.70    4.70
 -13   3  -6   -5.10    3.80
  13   3   6    3.10    3.10
  13  -3   6   -0.40    3.00
  13  -3   6    0.50    2.40
 -13  -3  -6    4.10    5.70
 -13   3  -7    6.40    6.10
  13   3   7    3.50    3.20
 -13   3  -7    4.90    5.00
  13  -3   7    1.10    2.80
 -13  -3  -7    1.80    4.90
 -13   3  -8   -6.90    4.50
  13   3   8   -1.40    3.10
 -13   3  -8   -2.50    5.50
  13  -3   8    3.20    3.10
 -13  -3  -8    4.30    6.50
  13  -4 -13   17.40    8.20
  13   4 -12    0.40    5.30
  13  -4 -12   10.30    6.60
 -13  -4  12   -1.50    3.10
  13   4 -11    5.20    5.10
 -13  -4  11    7.90    3.80
  13  -4 -11    6.00    5.50
  13   4 -10    0.10    4.50
 -13  -4  10    1.90    3.20
  13  -4 -10   -0.80    3.60
  13   4  -9   12.00    4.40
  13   4  -9   10.90    5.50
 -13  -4   9   11.30    4.10
  13  -4  -9   15.20    5.50
  13   4  -8   11.20    5.50
  13   4  -8   11.60    4.50
  13  -4  -8    9.70    5.00
 -13  -4   8   22.90    4.80
 -13  -4   8   12.80    4.70
  13   4  -7   13.10    5.50
  13   4  -7    9.90    4.30
 -13  -4   7    9.20    3.80
  13  -4  -7   15.50    5.50
 -13  -4   7    6.40    4.00
  13   4  -6  116.99   18.20
  13   4  -6  139.29   18.40
  13  -4  -6  128.19   18.20
  13  -4  -6  125.59   15.80
 -13  -4   6  132.39   16.50
 -13  -4   6  137.59   17.80
  13   4  -5   39.50    8.70
  13   4  -5   53.29    9.70
  13  -4  -5   44.60    7.20
 -13  -4   5   47.50    7.90
  13  -4  -5   35.00    8.10
 -13  -4   5   59.49    9.00
  13   4  -4    8.70    4.60
  13   4  -4    9.40    4.10
  13   4  -4    9.00    4.60
  13  -4  -4   10.50    4.30
  13  -4  -4   12.70    3.80
 -13  -4   4   18.80    5.10
 -13  -4   4   11.90    4.00
  13   4  -3    5.00    3.30
  13   4  -3    2.80    3.10
  13   4  -3   -4.70    2.40
  13  -4  -3    3.00    2.80
  13  -4  -3   -3.20    2.70
 -13  -4   3    1.10    3.00
 -13  -4   3    1.30    2.80
 -13   4   2    1.80    3.00
  13   4  -2    1.10    2.90
  13   4  -2    0.00    3.10
  13   4  -2    4.40    3.60
 -13  -4   2    2.70    3.20
  13  -4  -2    6.40    2.90
  13  -4  -2    2.20    2.80
 -13  -4   2    1.30    2.60
 -13   4   1   27.30    5.50
  13   4  -1   29.30    6.60
  13   4  -1   36.00    6.70
 -13  -4   1   28.30    6.50
  13  -4  -1   17.00    5.10
  13  -4  -1   19.10    5.30
 -13  -4   1   32.80    6.10
  13   4   0   36.20    7.20
  13   4   0   32.00    6.40
 -13   4   0   32.20    6.30
  13  -4   0   17.90    5.20
 -13  -4   0   35.80    7.30
  13  -4   0   29.50    5.40
 -13  -4   0   23.40    6.10
  13  -4   0   29.00    6.10
  13   4   1   37.30    7.20
 -13   4  -1   38.30    7.30
  13   4   1   34.60    8.00
 -13   4  -1   41.60    7.40
  13  -4   1   50.29    7.10
 -13  -4  -1   30.60    7.40
  13  -4   1   49.30    7.40
  13  -4   1   30.30    6.80
  13   4   2    9.30    4.70
 -13   4  -2   11.20    4.40
 -13   4  -2   14.10    4.50
  13   4   2   18.50    5.10
  13  -4   2    6.20    3.00
 -13  -4  -2   18.60    5.70
  13  -4   2    7.80    3.70
  13  -4   2   16.50    4.00
 -13   4  -3    0.40    3.40
 -13   4  -3    2.20    3.50
  13   4   3   -2.20    3.70
  13   4   3   -1.90    2.50
  13  -4   3    3.70    3.30
  13  -4   3   -0.10    2.50
  13  -4   3    1.90    3.00
 -13  -4  -3    3.30    3.90
 -13   4  -4   -2.10    3.10
 -13   4  -4    3.80    4.00
  13   4   4    4.40    3.60
 -13  -4  -4   10.10    4.40
  13  -4   4    4.00    2.90
  13  -4   4    4.40    3.20
  13  -4   4    2.00    3.30
  13   4   5    4.20    3.30
 -13   4  -5   -0.80    3.70
 -13   4  -5   -4.20    3.80
  13  -4   5    0.70    2.50
  13  -4   5   -5.30    2.30
  13  -4   5    5.10    3.40
 -13   4  -6   16.20    6.70
 -13   4  -6    9.10    5.40
  13   4   6    4.50    3.80
  13  -4   6   11.20    3.80
  13  -4   6    9.30    4.30
 -13  -4  -6   13.20    5.90
  13   4   7   -4.60    3.00
 -13   4  -7    5.50    5.40
 -13   4  -7    2.70    5.80
  13  -4   7    0.10    3.40
  13  -4   7    2.70    2.90
 -13  -4  -7    0.30    5.70
 -13   4  -8   10.80    6.60
  13   5 -12    1.80    5.30
  13  -5 -12   -6.90    6.60
 -13  -5  12   -0.20    3.10
  13   5 -11    3.40    5.10
 -13  -5  11    4.90    3.80
  13  -5 -11    5.20    6.40
  13   5 -10    3.20    4.30
  13   5 -10   -1.90    4.40
  13  -5 -10    5.40    5.30
 -13  -5  10   -1.80    2.60
  13   5  -9    3.00    4.20
  13   5  -9    0.10    3.50
  13  -5  -9    1.10    4.50
 -13  -5   9    0.00    2.90
  13   5  -8    1.80    4.10
  13   5  -8   -3.00    3.40
 -13  -5   8   -5.00    2.70
  13  -5  -8    2.20    4.40
 -13  -5   8    0.20    3.80
  13   5  -7   19.20    6.70
  13   5  -7   36.50    7.20
 -13  -5   7   45.80    7.70
 -13  -5   7   23.40    5.90
  13  -5  -7   30.20    7.90
  13   5  -6   58.49   11.60
  13   5  -6   75.69   12.10
 -13  -5   6   73.89   11.00
  13  -5  -6   77.29   12.70
 -13  -5   6   76.49   11.70
  13   5  -5    3.70    4.00
  13   5  -5    4.40    4.30
  13   5  -5    8.70    4.70
  13  -5  -5    0.40    3.40
 -13  -5   5    5.90    3.60
 -13  -5   5    2.20    3.30
  13  -5  -5    2.60    2.90
  13   5  -4  119.09   15.90
  13   5  -4   91.29   15.00
  13   5  -4   98.39   14.40
 -13  -5   4   96.49   14.10
 -13  -5   4  101.39   14.80
  13  -5  -4   90.39   14.60
  13  -5  -4  105.99   13.50
  13   5  -3   57.89   10.50
  13   5  -3   61.49   10.30
  13   5  -3   73.59   11.60
  13  -5  -3   67.39    9.40
 -13  -5   3   57.09    9.70
 -13  -5   3   52.99    9.90
  13  -5  -3   65.29   10.70
  13   5  -2   11.20    4.60
 -13   5   2   23.60    4.90
  13   5  -2   27.00    6.70
  13   5  -2   19.00    5.40
  13  -5  -2   15.60    5.20
 -13  -5   2   23.10    5.80
  13  -5  -2   16.90    4.60
 -13  -5   2   19.00    5.30
  13   5  -1   47.40    8.80
  13   5  -1   34.80    7.40
 -13   5   1   37.60    6.90
  13  -5  -1   47.20    8.00
  13  -5  -1   40.00    7.40
 -13  -5   1   43.90    8.50
 -13  -5   1   51.49    8.50
  13   5   0   -4.20    3.30
 -13   5   0    2.20    3.10
  13   5   0   -4.50    2.50
 -13  -5   0    0.50    3.50
  13  -5   0    0.60    2.90
  13  -5   0    2.30    3.20
  13   5   1    8.30    4.90
  13   5   1   18.60    5.00
 -13   5  -1   18.20    4.90
 -13   5  -1   15.30    4.90
 -13  -5  -1   21.00    5.60
  13  -5   1   15.30    4.50
  13  -5   1   12.00    4.60
  13  -5   1   22.20    4.70
  13   5   2   18.00    5.90
  13   5   2   17.40    5.30
 -13   5  -2   17.00    4.90
 -13   5  -2   14.70    4.70
 -13  -5  -2   19.40    5.90
  13  -5   2   22.00    4.70
  13  -5   2    9.50    4.20
  13  -5   2   17.40    4.60
 -13   5  -3   11.60    4.80
  13   5   3   10.60    7.60
  13   5   3   25.90    5.60
 -13   5  -3   18.90    5.40
  13  -5   3   11.70    3.90
  13  -5   3   11.50    4.30
  13  -5   3   19.40    4.70
 -13  -5  -3   24.20    6.30
  13   5   4   40.80    7.80
 -13   5  -4   36.50    7.60
 -13   5  -4   40.40    8.20
 -13  -5  -4   38.30    7.90
  13  -5   4   31.60    6.30
  13  -5   4   52.59    7.60
  13  -5   4   29.00    6.90
  13   5   5   11.90    4.30
 -13   5  -5    7.30    4.90
 -13   5  -5    4.40    4.30
  13  -5   5    3.50    3.30
  13  -5   5    8.70    3.80
  13  -5   5    8.10    3.30
 -13   5  -6   29.40    8.40
  13   5   6   37.50    7.00
 -13   5  -6   26.20    6.90
  13  -5   6   20.70    5.20
  13  -5   6   25.10    5.60
  13  -5   6   23.60    6.00
  13   5   7   12.60    4.70
 -13   5  -7   13.00    6.20
  13  -6 -11    1.50    6.50
  13   6 -10    2.80    4.90
  13   6 -10    2.70    4.30
  13  -6 -10    7.20    6.90
 -13  -6  10    3.70    3.60
  13   6  -9    7.00    5.30
  13   6  -9   -0.90    3.70
  13  -6  -9   -3.30    5.40
 -13  -6   9    6.70    4.00
 -13  -6   9    3.50    4.40
  13   6  -8    7.70    4.70
  13   6  -8   10.30    5.60
  13  -6  -8    6.20    5.90
 -13  -6   8   14.60    4.30
 -13  -6   8    2.90    4.30
  13   6  -7    0.70    4.10
  13   6  -7   -0.80    3.60
 -13  -6   7    5.50    3.30
 -13  -6   7   -0.80    3.10
  13  -6  -7    5.20    4.90
  13   6  -6   -3.60    3.50
  13   6  -6    6.30    4.50
  13  -6  -6    4.80    4.40
 -13  -6   6    5.30    3.40
 -13  -6   6    3.70    3.80
  13   6  -5   -0.90    4.20
  13   6  -5    4.60    3.90
  13   6  -5   -5.50    3.60
  13  -6  -5    2.00    3.90
 -13  -6   5    0.60    3.20
 -13  -6   5   -0.30    3.40
  13   6  -4   93.79   13.60
  13   6  -4  106.39   13.40
  13   6  -4   71.69   12.70
 -13  -6   4   65.39   12.10
  13  -6  -4   90.69   11.50
 -13  -6   4   64.39   11.40
  13  -6  -4   77.29   13.00
 -13   6   3  152.38   18.20
  13   6  -3  127.39   20.20
  13   6  -3  152.78   21.00
  13   6  -3  162.08   20.60
  13  -6  -3  152.98   20.60
 -13  -6   3  162.88   19.20
 -13  -6   3  133.99   20.10
  13  -6  -3  148.99   18.40
  13   6  -2    2.10    3.90
  13   6  -2   -1.30    3.30
  13   6  -2    4.30    3.90
 -13   6   2    5.30    3.30
  13  -6  -2    2.70    3.70
 -13  -6   2    4.60    4.30
 -13  -6   2    3.20    4.20
  13  -6  -2    9.10    3.50
 -13   6   1    2.50    3.00
  13   6  -1   -2.80    3.10
  13   6  -1   -3.30    3.70
  13   6  -1    4.70    3.90
  13  -6  -1    0.70    2.60
  13  -6  -1    2.60    3.40
 -13  -6   1   -3.20    3.70
  13   6   0    2.10    4.10
  13   6   0    2.80    4.70
  13   6   0    4.10    4.00
 -13   6   0    4.90    3.40
  13  -6   0    4.00    3.60
 -13  -6   0    4.70    4.20
  13  -6   0    5.50    3.30
  13   6   1    1.20    3.70
  13   6   1   -0.20    3.00
 -13   6  -1   -3.20    2.90
  13  -6   1    1.40    3.00
 -13  -6  -1    2.20    4.30
  13  -6   1    4.10    3.40
  13   6   2    6.60    4.70
 -13   6  -2   17.90    5.10
 -13   6  -2   12.30    4.30
  13   6   2    6.50    4.40
  13  -6   2    7.10    4.10
  13  -6   2   15.90    4.00
 -13  -6  -2    7.20    4.80
  13  -6   2   10.50    4.30
  13   6   3    9.30    4.70
 -13   6  -3   22.50    5.70
 -13   6  -3   13.40    5.20
 -13  -6  -3    5.00    5.10
  13  -6   3   15.30    4.10
  13  -6   3   16.90    5.70
  13  -6   3   20.40    5.20
 -13   6  -4   10.70    4.90
 -13   6  -4    4.90    4.30
  13   6   4    4.80    3.60
  13  -6   4    4.30    3.60
  13  -6   4    1.30    3.50
  13  -6   4    2.90    2.70
  13   6   5    4.90    4.00
 -13   6  -5    3.40    5.10
 -13   6  -5    6.30    4.70
  13  -6   5    1.30    2.70
  13  -6   5    0.30    3.10
  13  -6   5    4.80    3.90
  13   7  -9    5.10    4.50
 -13  -7   9    3.50    4.70
 -13  -7   9   -2.20    3.50
  13  -7  -9    6.50    6.30
  13   7  -8    8.00    5.30
 -13  -7   8   10.30    3.90
  13  -7  -8   -3.00    5.40
 -13  -7   8   -0.60    3.90
  13   7  -7   48.10    9.00
 -13  -7   7   35.70    7.20
  13  -7  -7   14.60    8.20
 -13  -7   7   49.20    8.70
  13   7  -6   21.20    6.90
  13  -7  -6    8.40    6.50
 -13  -7   6   19.60    6.10
 -13  -7   6   18.10    5.10
  13   7  -5   -2.00    3.80
  13   7  -5    2.50    4.80
 -13  -7   5    2.80    3.90
  13  -7  -5    0.90    4.50
 -13  -7   5    2.10    3.60
  13   7  -4    5.80    4.40
  13   7  -4   -0.50    3.60
  13  -7  -4   -4.30    3.90
 -13  -7   4   -3.50    3.30
  13  -7  -4    1.40    3.50
 -13  -7   4    0.00    3.50
  13   7  -3    6.30    4.70
  13   7  -3   13.40    5.50
 -13   7   3   18.40    4.20
  13  -7  -3   10.80    5.80
 -13  -7   3   13.90    5.20
 -13  -7   3   22.60    6.40
  13  -7  -3   13.20    4.30
  13   7  -2    4.20    4.40
 -13   7   2    4.20    3.10
  13   7  -2    7.20    4.30
  13  -7  -2    1.70    3.80
  13  -7  -2    4.90    3.40
 -13  -7   2   -0.50    4.10
  13   7  -1   14.20    5.30
 -13   7   1   12.30    4.20
  13   7  -1    0.60    4.60
  13  -7  -1    6.50    3.70
 -13  -7   1   11.80    4.80
  13  -7  -1    5.30    4.10
 -13   7   0    1.40    3.30
  13   7   0   -5.40    3.20
  13   7   0    9.90    5.10
  13  -7   0    6.90    5.40
 -13  -7   0    5.80    4.70
  13  -7   0   -0.30    2.90
 -13   7  -1   -1.50    3.20
  13   7   1   -4.00    4.40
  13   7   1   -1.30    3.40
  13  -7   1    3.10    3.50
 -13  -7  -1    0.30    4.20
  13  -7   1    3.00    3.60
 -13   7  -2    5.30    4.00
 -13   7  -2    4.10    3.90
  13   7   2    4.70    4.20
  13  -7   2    2.70    3.80
 -13  -7  -2    8.60    4.70
  13  -7   2    8.90    4.60
 -13   7  -3    0.30    3.80
  13   7   3   -4.30    3.30
 -13   7  -3    0.30    3.70
  13  -7   3    6.00    3.30
  13  -7   3    5.20    3.90
  13  -7   3    3.80    3.70
  13   7   4   -4.50    3.60
 -13   7  -4   -1.80    4.30
 -13   7  -4    2.60    4.80
  13  -7   4   -0.60    3.40
  13  -7   4    4.30    3.80
  13  -7   4    2.10    3.00
  13   8  -6    1.30    5.30
  13  -8  -6   13.30    7.20
 -13  -8   6    0.30    3.90
 -13  -8   6   -1.90    3.70
  13   8  -5    4.10    4.80
 -13  -8   5   -2.90    3.80
 -13  -8   5    0.00    4.30
  13  -8  -5    6.40    6.50
  13   8  -4    3.30    5.30
  13   8  -4    7.70    5.40
  13  -8  -4   -1.10    5.10
 -13  -8   4    7.00    5.40
  13   8  -3   76.59   11.60
 -13   8   3   53.79    8.80
  13   8  -3   56.89   11.30
  13  -8  -3   63.39    9.40
  13  -8  -3   52.89   10.90
 -13  -8   3   49.99   10.40
  13   8  -2   36.20    8.10
  13   8  -2   43.60    9.20
 -13   8   2   33.60    6.90
 -13  -8   2   40.90    8.40
  13  -8  -2   48.80    9.50
  13  -8  -2   29.10    6.70
  13   8  -1   13.20    5.30
 -13   8   1    9.10    4.20
  13   8  -1    6.40    5.30
  13  -8  -1    5.60    5.20
  13  -8  -1   11.60    4.30
 -13  -8   1   11.10    5.10
  13   8   0    1.60    4.20
 -13   8   0    0.20    3.30
  13   8   0    4.00    4.90
  13  -8   0    3.50    5.00
  13  -8   0    3.20    3.70
 -13  -8   0   -4.40    4.40
  13   8   1   -0.40    4.60
 -13   8  -1   -0.20    4.10
  13   8   1   16.70    5.70
 -13  -8  -1   10.50    4.90
  13  -8   1    7.20    4.90
  13  -8   1    2.90    3.80
  14   0 -13    2.50    5.40
  14   0 -13  -11.90    5.80
  14   0 -12   27.80    8.90
  14   0 -12   41.50    8.80
 -14   0  12   32.20    6.50
 -14   0  11    4.90    3.20
  14   0 -11    2.50    4.30
  14   0 -11    0.00    4.80
  14   0 -10  100.29   15.80
  14   0 -10   96.59   14.70
 -14   0  10   80.59   12.20
 -14   0   9    0.00    2.10
  14   0  -9   -0.30    4.40
  14   0  -9    5.40    4.20
  14   0  -8    1.30    3.90
 -14   0   8   -2.10    2.10
  14   0  -8    1.60    3.80
  14   0  -8    4.60    3.00
  14   0  -7    4.30    3.70
  14   0  -7   -2.80    2.20
  14   0  -7    1.60    3.80
  14   0  -6   31.10    6.00
  14   0  -6   16.20    6.00
  14   0  -5    0.00    3.50
  14   0  -5   -1.30    2.40
  14   0  -4    6.70    3.50
  14   0  -4   -0.80    2.90
  14   0  -3    1.50    2.70
  14   0  -3   -1.00    2.90
  14   0  -3   -0.40    2.50
  14   0  -2   21.40    5.10
  14   0  -2   25.70    5.90
  14   0  -1    4.50    3.10
  14   0  -1    2.70    2.70
  14   0   0    7.80    4.00
  14   0   0    4.70    3.40
  14   0   1    2.90    2.90
 -14   0  -1    1.30    3.80
  14   0   1    1.30    3.20
  14   0   2    3.20    3.70
 -14   0  -2   11.20    5.00
  14   0   2   12.20    3.80
  14   0   3    2.50    3.20
 -14   0  -3    1.90    4.80
  14   0   3    1.90    3.70
  14   0   4  148.09   20.80
  14   0   4  134.99   19.70
 -14   0  -4  192.88   23.40
  14   0   5   -2.10    3.00
  14   0   5    2.60    4.00
 -14   0  -5   -7.40    4.20
  14   0   6   10.50    4.20
 -14   0  -6    1.70    5.90
  14   0   7   -2.50    3.00
 -14   0  -7   -2.70    5.90
  14   0   8   28.50    7.00
 -14   0  -8   49.80   10.70
  14   1 -13   -3.70    4.50
  14   1 -13    4.50    6.70
  14  -1 -13    2.00    4.40
  14  -1 -13   -1.00    6.10
 -14  -1  13   -2.70    3.80
 -14   1  12   44.90   10.10
  14   1 -12   41.60    9.30
  14   1 -12   49.90   11.40
 -14  -1  12   55.79    8.80
  14  -1 -12   54.09   10.90
  14  -1 -12   44.30   10.00
  14   1 -11   71.99   13.50
 -14   1  11   71.49   10.30
  14   1 -11   73.09   12.00
 -14  -1  11   71.09   10.50
  14  -1 -11   69.59   13.00
  14  -1 -11   55.99   11.80
 -14   1  10    5.10    2.80
  14   1 -10    5.50    4.20
  14   1 -10    2.60    5.00
  14  -1 -10   -2.40    4.10
  14  -1 -10   -1.50    4.50
 -14  -1  10    0.30    2.60
  14   1  -9    5.20    4.70
  14  -1  -9    7.10    4.90
  14  -1  -9    4.90    5.30
 -14  -1   9    4.50    2.90
  14   1  -8    3.20    4.10
  14   1  -8    2.40    2.90
 -14  -1   8   -0.40    2.20
  14  -1  -8    2.30    4.30
  14  -1  -8    0.60    4.00
  14   1  -7   11.20    5.00
  14   1  -7    0.50    2.80
  14  -1  -7    2.50    2.50
  14  -1  -7   -0.50    3.90
  14  -1  -7    9.90    5.00
 -14  -1   7    3.00    2.50
  14   1  -6    8.40    3.80
  14   1  -6   14.20    5.20
 -14  -1   6    9.10    3.40
  14  -1  -6    8.60    4.40
  14  -1  -6    5.40    4.40
  14  -1  -6   12.00    3.70
  14   1  -5    2.60    3.20
  14   1  -5    8.00    4.50
  14  -1  -5    8.20    3.40
  14  -1  -5   -2.30    3.50
  14  -1  -5   -0.70    3.10
  14   1  -4    2.90    3.10
  14   1  -4   -5.40    2.60
  14  -1  -4   -0.70    3.00
  14  -1  -4    0.20    3.10
  14  -1  -4   -0.30    2.40
  14   1  -3   11.70    4.30
  14   1  -3    8.40    4.40
  14   1  -3   18.10    5.20
  14  -1  -3   25.20    5.10
  14  -1  -3   17.80    5.30
  14   1  -2   79.29   10.60
  14   1  -2   53.99    9.80
  14  -1  -2   71.59   10.00
  14  -1  -2   55.89   10.00
 -14   1   1  129.79   15.00
  14   1  -1   97.39   14.70
  14   1  -1   95.09   14.00
  14  -1  -1   85.39   14.10
  14  -1  -1  104.79   13.90
 -14   1   0   75.09   11.70
  14   1   0   68.69   10.70
  14   1   0   85.69   12.50
  14  -1   0   76.69   11.00
  14  -1   0   60.59   11.20
  14   1   1    5.10    3.40
 -14   1  -1   -1.50    4.00
  14   1   1    2.60    3.10
 -14   1  -1   -1.70    3.20
  14  -1   1   -1.40    2.40
  14  -1   1    3.00    3.40
  14   1   2    7.90    3.80
 -14   1  -2    4.30    4.40
  14   1   2    7.70    3.70
 -14   1  -2    6.10    4.40
  14  -1   2    7.10    3.50
 -14  -1  -2    4.60    4.40
  14  -1   2    2.50    3.50
 -14   1  -3   -0.90    4.50
 -14   1  -3    0.90    4.30
  14   1   3    3.90    3.60
  14   1   3    1.60    3.60
  14  -1   3    1.00    2.80
  14  -1   3   -1.10    3.30
 -14  -1  -3    3.60    4.80
 -14   1  -4   49.10    9.70
  14   1   4   48.30    8.00
  14   1   4   28.40    7.20
  14  -1   4   24.00    6.70
 -14  -1  -4   39.90    9.00
  14  -1   4   23.90    6.30
  14   1   5    9.00    4.40
 -14   1  -5    6.90    5.70
 -14  -1  -5   15.20    6.50
  14  -1   5   -1.90    3.30
  14  -1   5    8.10    4.20
 -14  -1  -5   18.20    5.80
 -14   1  -6    7.90    6.20
  14   1   6    3.90    4.00
 -14  -1  -6    6.90    5.60
  14  -1   6    5.10    3.90
 -14  -1  -6    4.30    4.90
  14   1   7    6.40    4.20
 -14   1  -7    8.40    6.80
  14  -1   7    0.20    3.70
 -14  -1  -7    7.60    6.80
  14   2 -13   -4.00    6.10
  14  -2 -13   -2.60    7.40
 -14  -2  13   -1.10    3.30
  14  -2 -13   -4.00    4.60
  14   2 -12    7.90    7.40
 -14  -2  12    9.40    4.00
  14  -2 -12   -1.30    6.20
  14  -2 -12   -4.00    4.50
 -14   2  11   42.70    6.80
  14   2 -11   29.60    9.30
 -14  -2  11   37.40    7.10
  14  -2 -11   26.70    7.80
  14  -2 -11   44.30   10.30
  14   2 -10   26.10    8.50
  14  -2 -10   29.60    8.10
 -14  -2  10   25.90    5.90
  14  -2 -10   24.00    7.60
  14   2  -9    2.30    4.90
 -14  -2   9   -3.00    2.10
  14  -2  -9   -0.70    4.90
  14  -2  -9    1.80    4.00
  14   2  -8    0.10    2.90
  14   2  -8   -2.50    4.10
  14  -2  -8    8.20    5.10
 -14  -2   8   -5.30    2.10
  14  -2  -8   -0.60    3.80
  14   2  -7   30.00    6.30
  14   2  -7   18.80    6.40
 -14  -2   7   27.40    6.00
 -14  -2   7   23.00    5.20
  14  -2  -7   16.50    6.30
  14  -2  -7   28.10    6.70
  14  -2  -7   26.70    5.30
  14   2  -6  100.59   16.40
  14   2  -6  114.59   15.60
  14  -2  -6  117.19   16.50
 -14  -2   6  110.69   14.80
  14  -2  -6   94.29   15.60
 -14  -2   6  108.89   15.40
  14  -2  -6  120.69   15.00
  14   2  -5   35.90    8.00
  14   2  -5   34.60    6.80
 -14  -2   5   28.60    5.70
  14  -2  -5   24.40    6.60
  14  -2  -5   31.30    6.10
 -14  -2   5   35.30    7.10
  14  -2  -5   21.60    6.20
  14   2  -4    2.10    3.80
  14   2  -4    6.30    3.80
  14   2  -4   -0.30    3.10
  14  -2  -4   -0.60    3.40
 -14  -2   4    7.80    3.90
  14  -2  -4    8.40    3.60
 -14  -2   4    3.00    2.80
  14  -2  -4    2.80    3.50
  14   2  -3    1.00    2.80
  14   2  -3    4.10    3.40
  14   2  -3    1.50    3.80
  14  -2  -3    3.50    2.70
  14  -2  -3    9.40    4.30
 -14  -2   3    6.10    3.30
  14  -2  -3   -0.50    2.90
  14   2  -2   45.90    8.60
 -14   2   2   50.49    7.80
  14   2  -2   45.90    7.90
  14  -2  -2   49.50    8.70
 -14  -2   2   69.19    8.90
  14  -2  -2   41.60    8.00
  14  -2  -2   46.30    8.30
  14  -2  -2   25.90    7.10
  14   2  -1  189.88   24.50
  14   2  -1  177.78   24.90
 -14   2   1  216.28   24.70
  14  -2  -1  189.98   24.40
 -14  -2   1  242.38   25.10
  14  -2  -1  216.78   25.00
  14  -2  -1  205.88   24.40
 -14   2   0  126.69   15.50
  14   2   0  113.59   14.90
  14   2   0   83.99   14.80
  14  -2   0   91.49   13.80
 -14  -2   0  140.39   15.70
  14  -2   0   90.89   14.30
 -14   2  -1    1.20    3.50
  14   2   1    1.60    3.20
  14   2   1   -2.40    2.20
 -14   2  -1    3.70    3.90
 -14  -2  -1    2.90    5.80
  14  -2   1    5.20    3.20
  14  -2   1    3.90    3.30
  14   2   2    4.60    3.70
 -14   2  -2    4.30    4.00
 -14   2  -2    0.90    3.80
  14   2   2    0.40    2.90
 -14  -2  -2    1.40    3.40
  14  -2   2    3.20    2.90
  14  -2   2   -0.40    2.80
  14   2   3   35.50    8.00
 -14   2  -3   42.20    8.20
 -14   2  -3   34.00    7.80
  14   2   3   17.70    5.40
 -14  -2  -3   18.80    6.60
  14  -2   3   33.00    6.80
 -14  -2  -3   30.00    8.70
  14  -2   3   15.40    4.90
  14   2   4   38.60    7.80
  14   2   4   30.70    8.00
 -14   2  -4   41.90    8.80
 -14   2  -4   45.80   10.00
  14  -2   4   28.70    7.80
  14  -2   4   44.50    7.80
 -14  -2  -4   59.49    9.60
 -14  -2  -4   42.30    9.20
 -14   2  -5   -3.60    3.90
 -14   2  -5    3.30    4.90
  14   2   5    0.40    3.30
 -14  -2  -5   -3.30    4.00
  14  -2   5   -1.30    2.80
  14  -2   5   -4.50    2.90
 -14  -2  -5   11.40    6.00
 -14   2  -6   -2.40    4.50
 -14   2  -6    1.80    5.10
  14   2   6    6.50    4.10
  14  -2   6    4.30    3.20
 -14  -2  -6   -1.80    5.30
  14  -2   6    2.50    3.50
  14   2   7    8.50    4.20
 -14   2  -7    5.90    6.60
  14  -2   7   19.20    5.00
 -14  -2  -7   18.00    7.70
  14   3 -12    7.80    6.90
  14  -3 -12   10.20    6.40
 -14  -3  12    7.50    3.90
  14   3 -11   22.80    7.70
  14  -3 -11   19.70    6.90
 -14  -3  11   21.60    5.70
  14   3 -10   15.00    6.90
 -14  -3  10   26.20    5.60
  14  -3 -10   19.00    6.60
  14   3  -9   -1.40    4.50
  14   3  -9   -3.20    2.90
 -14  -3   9    3.60    3.10
  14  -3  -9   -0.50    3.90
  14   3  -8    5.00    3.80
  14   3  -8    8.30    4.90
 -14  -3   8    6.30    3.50
  14  -3  -8    1.50    4.10
  14   3  -7    1.50    4.00
  14   3  -7    0.70    3.50
 -14  -3   7   -1.50    2.70
  14  -3  -7    0.50    3.40
 -14  -3   7   -1.20    2.30
  14   3  -6   13.60    5.50
  14   3  -6   32.50    6.40
 -14  -3   6   20.50    5.60
 -14  -3   6   22.10    5.20
  14  -3  -6   11.30    5.10
  14  -3  -6   26.10    5.10
  14   3  -5   31.50    6.70
  14   3  -5   20.50    6.00
 -14  -3   5   20.30    5.20
  14  -3  -5   26.20    5.60
  14  -3  -5   27.40    6.80
 -14  -3   5   22.10    6.00
  14   3  -4   12.40    4.30
  14   3  -4    3.10    3.40
  14   3  -4   -0.90    3.00
  14  -3  -4    6.60    4.50
 -14  -3   4    1.70    2.90
  14  -3  -4    6.60    3.50
  14  -3  -4    5.40    3.60
 -14  -3   4    2.50    3.60
  14   3  -3    2.60    3.10
  14   3  -3    2.10    3.30
  14   3  -3    7.60    3.80
  14  -3  -3    2.70    2.90
 -14  -3   3   11.60    4.60
  14  -3  -3    2.90    3.50
  14  -3  -3    4.60    4.00
 -14  -3   3    3.10    3.10
  14   3  -2   13.70    4.30
  14   3  -2   11.40    4.90
 -14   3   2    9.30    3.50
  14   3  -2    2.60    3.20
 -14  -3   2    4.80    3.80
  14  -3  -2    9.10    3.70
 -14  -3   2    2.40    3.30
  14  -3  -2   12.40    4.50
  14  -3  -2    8.20    4.30
  14   3  -1   12.60    4.80
  14   3  -1   10.90    4.00
 -14   3   1    4.10    3.50
 -14  -3   1   12.40    4.60
  14  -3  -1    8.60    3.70
  14  -3  -1    7.10    3.40
 -14  -3   1    4.50    3.70
  14  -3  -1    8.00    4.00
  14   3   0    1.20    3.00
  14   3   0    4.00    2.90
 -14   3   0    1.10    3.20
 -14   3   0    2.70    3.10
 -14  -3   0   -0.60    3.70
  14  -3   0   -1.60    2.30
  14  -3   0    5.30    3.00
  14  -3   0   -4.90    2.30
 -14  -3   0   -2.10    3.50
  14   3   1   -0.60    2.90
  14   3   1    1.60    3.40
 -14   3  -1    4.90    3.70
 -14   3  -1    8.10    3.80
  14  -3   1    1.80    2.90
  14  -3   1    4.90    3.20
  14  -3   1    3.40    3.20
 -14  -3  -1    0.30    4.00
 -14   3  -2   37.80    7.30
 -14   3  -2   14.10    5.60
  14   3   2   16.60    5.80
  14   3   2   22.30    5.50
 -14  -3  -2   20.60    6.10
  14  -3   2   20.80    5.00
  14  -3   2   21.60    5.50
  14   3   3  139.49   23.00
 -14   3  -3  206.38   24.00
  14   3   3  193.08   23.70
 -14   3  -3  166.68   23.60
  14  -3   3  168.18   22.40
  14  -3   3  209.88   23.60
 -14  -3  -3  229.88   24.30
 -14   3  -4   33.70    7.60
  14   3   4   20.90    5.90
 -14   3  -4   42.50    8.70
  14  -3   4   30.10    7.00
  14  -3   4   22.30    6.00
 -14  -3  -4   44.10    8.10
 -14   3  -5   21.80    7.10
 -14   3  -5   28.40    7.30
  14   3   5   17.00    5.50
 -14  -3  -5   30.60    8.00
 -14  -3  -5   30.00    7.10
  14  -3   5   14.30    5.00
  14  -3   5   28.30    6.50
  14   3   6    1.40    3.40
 -14   3  -6   -6.40    4.00
 -14   3  -6   -1.30    4.90
 -14  -3  -6   11.00    6.30
  14  -3   6   -2.90    2.70
  14  -3   6    4.30    3.60
  14   3   7    2.30    3.90
 -14   3  -7    0.60    5.50
 -14   3  -7    4.10    6.00
  14  -3   7    2.60    3.70
 -14  -3  -7    0.50    5.90
  14   4 -12   10.10    6.50
 -14  -4  12    9.70    4.30
  14  -4 -12   13.60    7.40
  14   4 -11    7.60    6.50
 -14  -4  11    4.90    3.80
  14  -4 -11    6.10    6.00
  14   4 -10    1.60    4.90
  14  -4 -10    1.00    4.80
 -14  -4  10    1.80    3.40
  14   4  -9   -1.60    3.20
  14   4  -9   -6.00    3.90
 -14  -4   9    3.80    3.00
  14  -4  -9    1.40    4.40
  14   4  -8   16.50    6.30
  14   4  -8   18.50    5.30
  14  -4  -8   15.50    6.40
 -14  -4   8   14.20    4.90
 -14  -4   8   20.90    5.30
  14   4  -7  122.69   16.10
  14   4  -7  100.09   16.30
  14  -4  -7   82.79   15.30
 -14  -4   7  110.59   15.40
 -14  -4   7  124.59   15.40
  14   4  -6   28.80    7.40
  14   4  -6   17.30    6.20
 -14  -4   6   42.30    7.50
 -14  -4   6   27.10    6.00
  14  -4  -6   30.80    6.30
  14  -4  -6   20.70    6.50
  14   4  -5   54.39   10.10
  14   4  -5   54.09    9.50
  14  -4  -5   54.39    7.90
  14  -4  -5   32.80    8.20
 -14  -4   5   54.59    8.90
 -14  -4   5   34.80    7.50
  14   4  -4    1.20    3.70
  14   4  -4    6.30    4.30
  14   4  -4    1.40    3.60
  14  -4  -4    2.90    3.80
 -14  -4   4    6.80    3.80
 -14  -4   4    9.70    4.00
  14  -4  -4    3.30    3.10
  14   4  -3    2.60    3.40
  14   4  -3    3.80    3.60
  14   4  -3    2.60    3.90
  14  -4  -3    1.30    3.30
  14  -4  -3    8.50    3.70
 -14  -4   3    4.20    4.10
 -14  -4   3    0.30    3.20
  14   4  -2    3.50    4.00
  14   4  -2    1.10    3.30
  14   4  -2    3.30    3.80
  14  -4  -2    5.50    3.50
 -14  -4   2    7.60    4.10
  14  -4  -2    4.70    3.60
 -14  -4   2    4.80    3.60
 -14   4   1    6.60    3.70
 -14   4   1   13.00    4.70
  14   4  -1   11.10    4.80
  14   4  -1   11.50    4.60
  14   4  -1   17.80    5.10
 -14  -4   1   15.70    5.20
  14  -4  -1   12.00    4.30
  14  -4  -1   17.80    4.70
 -14  -4   1   14.00    5.10
  14   4   0   26.70    7.50
  14   4   0   70.59   10.40
 -14   4   0   40.30    7.80
 -14   4   0   38.70    7.60
  14  -4   0   46.70    8.10
  14  -4   0   43.40    8.20
  14  -4   0   53.79    8.20
 -14  -4   0   58.59    9.90
 -14   4  -1    4.00    3.60
 -14   4  -1    3.40    3.20
  14   4   1   -3.50    2.90
  14   4   1   -2.30    3.50
  14  -4   1    1.30    2.70
  14  -4   1   -1.00    2.90
 -14  -4  -1    2.70    4.50
  14  -4   1    3.30    3.40
  14   4   2   17.50    5.90
  14   4   2   11.60    4.90
 -14   4  -2   18.70    5.70
 -14   4  -2   25.00    5.90
  14  -4   2   16.60    4.50
  14  -4   2   20.30    5.60
 -14  -4  -2   13.60    6.00
  14  -4   2   22.50    5.20
  14   4   3   10.50    5.20
 -14   4  -3   10.70    5.20
  14   4   3    8.00    4.20
 -14   4  -3    7.20    4.60
  14  -4   3   18.10    4.60
  14  -4   3    0.40    3.40
  14  -4   3   14.20    4.10
 -14  -4  -3    7.00    4.90
 -14   4  -4    7.90    5.30
 -14   4  -4   14.40    5.60
  14   4   4    6.20    4.20
 -14  -4  -4    8.60    5.20
  14  -4   4    5.20    3.80
  14  -4   4   11.00    3.90
 -14   4  -5   22.40    6.90
  14   4   5   20.40    5.70
 -14   4  -5   15.40    6.20
  14  -4   5   23.10    5.30
  14  -4   5   22.90    6.00
 -14   4  -6    2.80    4.70
 -14   4  -6   -1.10    4.90
  14   4   6    0.70    3.70
  14  -4   6    1.80    3.10
  14  -4   6   -1.90    3.60
  14   5 -11   -4.60    4.40
  14  -5 -11    6.70    6.60
 -14  -5  11   -4.60    2.90
  14   5 -10    3.00    5.40
  14  -5 -10   10.50    6.10
 -14  -5  10   -0.50    3.20
  14   5  -9   -2.50    4.10
  14   5  -9   -4.00    3.50
  14  -5  -9    5.80    5.20
 -14  -5   9    0.30    3.10
  14   5  -8   31.00    8.10
  14   5  -8   41.90    8.20
  14  -5  -8   20.50    7.50
 -14  -5   8   38.10    7.70
 -14  -5   8   32.10    6.60
  14   5  -7   44.80   10.20
  14   5  -7   57.59   10.00
  14  -5  -7   47.70   10.40
 -14  -5   7   62.49   10.00
 -14  -5   7   53.99    9.10
  14   5  -6    2.00    4.10
  14   5  -6    2.10    3.90
 -14  -5   6    9.10    3.80
  14  -5  -6    4.90    4.40
 -14  -5   6    3.10    4.10
  14   5  -5   58.69   12.10
  14   5  -5   85.49   13.00
  14  -5  -5   82.99   11.00
 -14  -5   5   84.99   12.50
  14  -5  -5   55.99   11.70
 -14  -5   5   84.29   11.70
  14   5  -4   29.50    7.30
  14   5  -4   30.70    7.10
  14   5  -4   29.50    7.50
 -14  -5   4   42.20    8.30
  14  -5  -4   29.10    7.20
  14  -5  -4   43.20    6.80
 -14  -5   4   34.30    7.00
  14   5  -3   10.80    4.80
  14   5  -3   19.90    5.80
  14   5  -3   18.10    5.50
 -14  -5   3   15.90    5.40
  14  -5  -3   10.50    4.20
  14  -5  -3   12.30    4.70
 -14  -5   3   12.80    4.70
  14   5  -2    5.40    4.80
  14   5  -2   21.80    5.60
  14   5  -2   21.20    6.10
  14  -5  -2   13.00    4.70
 -14  -5   2   22.10    5.90
 -14  -5   2    8.30    4.70
  14  -5  -2   10.20    4.10
  14   5  -1    0.40    3.90
 -14   5   1    3.60    3.10
  14   5  -1   -0.60    3.10
  14   5  -1    4.60    4.10
 -14  -5   1    2.70    3.80
  14  -5  -1   -2.10    3.00
  14  -5  -1    1.60    2.90
 -14   5   0   46.60    7.40
  14   5   0   29.30    6.90
  14   5   0   35.70    7.90
 -14   5   0   31.00    6.70
 -14  -5   0   33.40    7.40
  14  -5   0   26.20    6.60
  14  -5   0   30.50    6.60
  14   5   1   26.00    6.90
 -14   5  -1   26.70    5.90
  14   5   1   28.00    6.10
 -14   5  -1   19.20    5.50
 -14  -5  -1   30.60    7.00
  14  -5   1   21.00    5.90
  14  -5   1   26.40    6.20
  14  -5   1   15.60    4.80
 -14   5  -2   12.90    5.40
 -14   5  -2   25.90    6.20
  14   5   2   16.00    5.80
  14   5   2   25.90    5.80
  14  -5   2   24.30    5.60
 -14  -5  -2   12.70    5.60
  14  -5   2    7.50    4.50
  14  -5   2   25.80    5.30
 -14   5  -3    7.80    4.90
 -14   5  -3    1.40    4.20
  14   5   3    3.40    4.00
 -14  -5  -3   10.70    5.30
  14  -5   3    0.70    3.50
  14  -5   3    6.80    3.80
  14  -5   3    6.90    3.50
 -14   5  -4    0.90    4.20
 -14   5  -4    9.70    5.60
  14   5   4    1.70    3.90
  14  -5   4    1.20    3.10
  14  -5   4   10.70    3.90
  14  -5   4    0.10    3.50
  14   5   5    6.80    4.40
 -14   5  -5   -0.20    5.00
 -14   5  -5    7.30    5.00
  14  -5   5    1.90    3.70
  14  -5   5    1.90    3.50
  14  -5   5    3.20    3.10
  14   6  -9   12.20    5.50
  14   6  -9    6.10    5.60
 -14  -6   9    7.00    4.10
 -14  -6   9    8.70    5.20
  14  -6  -9   10.40    7.10
  14   6  -8    4.30    5.40
  14   6  -8    2.70    4.50
 -14  -6   8    6.50    4.70
 -14  -6   8    7.60    4.00
  14  -6  -8    5.00    5.80
  14   6  -7   -2.40    3.90
  14   6  -7    1.20    4.80
 -14  -6   7   -1.70    3.80
  14  -6  -7   -3.60    4.50
 -14  -6   7    2.40    3.50
  14   6  -6   -2.90    3.90
  14   6  -6   -6.30    3.30
 -14  -6   6    1.10    3.20
  14  -6  -6    0.00    4.10
 -14  -6   6    4.00    4.10
  14   6  -5   22.80    7.00
  14   6  -5   21.30    6.90
 -14  -6   5   33.40    7.20
 -14  -6   5   38.50    6.80
  14   6  -4   32.60    8.10
  14   6  -4   38.60    7.70
  14   6  -4   33.60    7.90
 -14  -6   4   35.90    7.30
  14  -6  -4   22.30    7.00
  14  -6  -4   31.00    6.40
 -14  -6   4   42.80    8.30
  14   6  -3   21.10    7.00
  14   6  -3   22.30    6.60
  14   6  -3   31.30    7.10
 -14  -6   3   36.00    7.40
  14  -6  -3   25.10    7.00
  14  -6  -3   25.90    5.80
 -14  -6   3   19.20    5.90
 -14   6   2   17.60    6.00
  14   6  -2    7.10    4.90
  14   6  -2   19.00    5.80
  14   6  -2   24.90    6.20
 -14  -6   2   11.20    5.40
  14  -6  -2   14.10    5.50
  14  -6  -2   24.60    5.30
  14   6  -1   -1.00    3.70
 -14   6   1   -1.60    2.90
  14   6  -1   -3.60    3.40
  14   6  -1   -1.40    3.20
 -14  -6   1    0.40    3.80
  14  -6  -1    3.10    3.80
  14  -6  -1   -1.00    2.90
  14   6   0    1.40    4.30
  14   6   0    1.20    4.60
 -14   6   0    4.40    3.60
  14   6   0   -0.30    3.50
  14  -6   0   -3.20    3.00
  14  -6   0    2.60    3.80
 -14  -6   0   -2.00    4.30
  14   6   1   -2.40    3.60
 -14   6  -1    0.30    3.40
 -14   6  -1   -0.70    3.50
  14   6   1    6.60    4.20
  14   6   1   -0.80    4.30
 -14  -6  -1   -1.00    4.10
  14  -6   1    0.00    3.40
  14  -6   1    1.30    3.50
  14   6   2   15.60    5.60
 -14   6  -2   15.30    5.10
  14   6   2   17.80    6.10
 -14   6  -2   11.10    5.00
  14  -6   2   12.70    5.00
  14  -6   2   22.70    5.70
 -14  -6  -2   26.90    6.70
  14  -6   2   16.40    5.50
  14   6   3    5.80    4.40
 -14   6  -3    6.10    4.70
 -14   6  -3    0.70    4.00
  14  -6   3    4.10    4.00
  14  -6   3    4.70    3.50
 -14  -6  -3   14.20    6.00
  14  -6   3    8.30    4.40
 -14   6  -4    1.50    4.40
  14   6   4   -0.90    3.70
 -14   6  -4   -1.30    4.80
  14  -6   4    1.30    3.10
  14  -6   4   -4.00    3.40
  14  -6   4    0.70    3.80
  14   7  -7    4.40    4.90
  14  -7  -7   -9.30    5.60
 -14  -7   7    2.10    4.70
 -14  -7   7    1.30    3.90
  14   7  -6    4.00    5.30
 -14  -7   6    2.40    4.80
  14  -7  -6   -2.00    5.40
 -14  -7   6    0.30    3.50
  14   7  -5    9.40    5.00
 -14  -7   5   -3.20    3.60
 -14  -7   5   -3.20    4.10
  14  -7  -5    3.80    5.70
  14   7  -4    0.80    4.00
  14   7  -4    3.80    4.70
 -14  -7   4   -1.00    4.10
 -14  -7   4    0.20    3.90
  14  -7  -4    1.10    4.80
  14   7  -3   -0.50    4.00
  14   7  -3  -11.00    3.10
  14  -7  -3   -3.00    3.10
 -14  -7   3   -4.80    3.90
  14  -7  -3    1.60    4.70
 -14   7   2    3.60    3.50
  14   7  -2   -0.90    4.10
  14   7  -2    3.30    4.50
  14  -7  -2    7.20    3.90
 -14  -7   2   -2.80    4.60
  14  -7  -2    8.70    5.20
  14   7  -1   -5.10    4.30
  14   7  -1    2.70    4.00
 -14   7   1    5.60    3.90
  14  -7  -1   -3.40    3.10
  14  -7  -1    0.40    4.70
 -14  -7   1    1.60    4.70
  14   7   0    0.60    3.80
 -14   7   0    0.30    3.80
  14   7   0   10.10    5.00
  14  -7   0   -3.10    2.90
  14  -7   0    3.70    4.50
 -14  -7   0   -0.10    4.60
 -14   7  -1    1.20    4.00
 -14   7  -1    2.70    4.00
  14   7   1   -5.00    4.80
  14   7   1    6.40    4.20
  14  -7   1    2.90    4.00
 -14  -7  -1    3.50    4.80
  14  -7   1    3.70    4.30
  14   7   2    2.40    4.60
 -14   7  -2   -3.10    3.60
 -14   7  -2    6.80    4.50
 -14  -7  -2   -3.40    4.90
  14  -7   2    0.50    3.90
  14  -7   2    6.50    4.50
  15   0 -12   50.69   10.90
  15   0 -12   66.69   12.70
 -15   0  12   61.49    9.70
 -15   0  11   -2.10    2.90
  15   0 -11    3.90    4.60
  15   0 -11   -4.80    5.20
  15   0 -10   10.50    6.50
  15   0 -10    1.30    4.40
 -15   0  10    6.30    3.40
 -15   0   9   -1.70    2.10
  15   0  -9    5.30    4.40
  15   0  -9   -0.60    5.30
  15   0  -8    2.10    4.90
  15   0  -8    4.30    5.20
 -15   0   8    3.40    2.70
  15   0  -7   -5.60    3.40
  15   0  -7    1.00    2.90
  15   0  -6   -1.10    2.80
  15   0  -6    3.40    4.50
  15   0  -5    1.50    2.80
  15   0  -5    0.90    4.00
  15   0  -4   13.60    5.20
  15   0  -4    7.30    3.90
  15   0  -3    0.80    3.70
  15   0  -3   -1.10    2.80
  15   0  -2  320.67   39.80
  15   0  -2  339.87   39.80
  15   0  -2  356.76   39.50
  15   0  -1    4.10    3.50
  15   0   0    8.80    3.80
  15   0   0    2.90    3.70
  15   0   1    1.80    3.40
  15   0   1    0.40    3.30
 -15   0  -2   83.99   12.50
  15   0   2   47.30    9.80
  15   0   2   74.39   11.50
 -15   0  -3    4.00    4.90
  15   0   3   -4.40    3.30
  15   0   3   -0.40    3.00
 -15   0  -4    9.00    6.10
  15   0   4    2.30    3.60
  15   0   4    2.60    4.20
  15   0   5    2.50    3.70
 -15   0  -5   -2.40    5.00
  15   0   5   -2.40    3.60
 -15   0  -6   -4.50    5.80
 -15   0  -6    7.50    5.40
  15   0   6   10.90    4.70
 -15   1  12  102.59   12.30
  15   1 -12   57.89   13.70
 -15  -1  12   90.19   12.20
  15  -1 -12  110.09   16.10
  15  -1 -12   53.89   12.60
 -15   1  11   -0.90    3.20
  15   1 -11    3.00    5.90
  15  -1 -11    5.40    5.70
 -15  -1  11   -4.50    2.90
  15  -1 -11    8.00    5.20
  15   1 -10    0.30    5.40
 -15   1  10    6.80    3.10
  15  -1 -10    0.20    4.30
 -15  -1  10    7.70    3.40
  15  -1 -10   -1.40    5.40
 -15   1   9   -2.60    2.30
  15   1  -9    6.90    5.40
  15  -1  -9   -1.40    5.20
 -15  -1   9   -1.40    2.50
  15  -1  -9   10.10    5.50
  15   1  -8    2.30    4.60
  15   1  -8    3.20    3.10
 -15  -1   8   -2.10    2.40
  15  -1  -8    1.30    5.00
  15  -1  -8   -0.80    4.00
  15   1  -7   40.50    8.80
  15   1  -7   62.49   11.30
 -15  -1   7   57.09    8.80
  15  -1  -7   59.29    9.00
  15  -1  -7   62.09   11.20
  15  -1  -7   62.19   10.20
  15   1  -6    4.40    4.20
  15   1  -6   -1.20    2.70
  15  -1  -6    2.30    2.80
  15  -1  -6    3.00    3.70
 -15  -1   6    1.30    2.70
  15  -1  -6    4.00    4.40
  15   1  -5   -3.50    2.40
  15   1  -5    7.50    4.50
 -15  -1   5    1.20    2.80
  15  -1  -5    2.60    3.10
  15  -1  -5    1.50    4.10
  15   1  -4    1.60    3.70
  15   1  -4   -0.80    2.50
  15  -1  -4   -1.00    3.50
  15  -1  -4   -2.30    2.50
  15   1  -3   14.00    5.70
  15   1  -3   15.60    4.70
  15   1  -3   15.00    5.10
  15  -1  -3   15.10    5.20
  15  -1  -3   16.50    4.90
  15   1  -2  194.88   22.40
  15   1  -2  206.68   23.20
  15   1  -2  156.78   23.40
  15  -1  -2  180.88   22.80
  15  -1  -2  157.68   21.90
  15  -1  -2  195.38   23.00
  15   1  -1   20.00    5.40
  15   1  -1   26.00    6.50
  15  -1  -1   32.10    6.30
  15  -1  -1   21.10    6.00
  15   1   0   19.80    5.90
 -15   1   0   15.90    5.60
  15   1   0   18.70    5.30
  15  -1   0   16.00    4.90
  15  -1   0   19.00    5.70
  15   1   1   -6.20    2.50
  15   1   1   -2.60    3.30
 -15   1  -1   -2.90    4.00
  15  -1   1   -0.20    3.50
  15  -1   1    3.90    3.30
 -15   1  -2   36.30    8.30
  15   1   2   30.70    7.60
  15   1   2   27.40    6.60
  15  -1   2   23.80    6.10
  15  -1   2   35.70    7.90
  15   1   3   28.80    7.10
 -15   1  -3   26.50    8.00
  15   1   3   25.80    6.10
 -15  -1  -3   26.30    7.40
  15  -1   3   17.50    5.60
  15  -1   3   25.50    6.90
  15   1   4   -1.50    3.70
 -15   1  -4   -0.40    5.30
  15   1   4    2.00    3.70
 -15  -1  -4    3.50    5.20
  15  -1   4   -1.00    3.20
 -15  -1  -4    6.20    5.10
  15  -1   4    0.50    3.90
 -15   1  -5    5.30    5.90
  15   1   5    5.00    4.20
  15  -1   5    8.50    5.10
 -15  -1  -5   15.00    6.60
  15  -1   5    5.70    4.10
 -15  -1  -5   -1.70    4.50
  15   1   6    1.70    3.70
 -15   1  -6    0.50    6.10
  15  -1   6   -1.90    3.50
 -15  -1  -6   -7.80    5.40
  15   2 -12    5.50    7.40
  15  -2 -12    4.30    5.00
 -15  -2  12    0.40    3.60
 -15   2  11   23.60    4.80
  15   2 -11   11.80    7.30
  15  -2 -11    0.10    6.40
 -15  -2  11   11.00    4.30
  15  -2 -11    7.50    5.30
  15   2 -10    3.60    5.60
  15  -2 -10   -1.70    5.90
 -15  -2  10    6.00    3.60
  15  -2 -10    6.50    5.40
  15   2  -9   -0.30    5.00
  15  -2  -9    1.10    4.60
  15  -2  -9    0.00    5.30
 -15  -2   9    2.90    3.00
  15   2  -8   56.59    8.90
  15   2  -8   38.20    9.80
  15  -2  -8   38.60    9.00
 -15  -2   8   61.89    9.00
  15  -2  -8   54.89   11.00
  15   2  -7   -3.10    4.00
  15   2  -7   -1.10    2.90
  15  -2  -7    0.60    3.80
  15  -2  -7    5.80    5.10
 -15  -2   7    3.50    3.00
  15  -2  -7    7.80    4.50
 -15  -2   7    0.10    3.40
  15   2  -6   19.60    5.40
  15   2  -6    7.90    5.20
  15  -2  -6    7.60    5.10
  15  -2  -6   12.20    4.00
  15  -2  -6   16.40    6.10
 -15  -2   6   19.30    5.40
 -15  -2   6   12.50    4.10
  15   2  -5   -4.90    3.30
  15   2  -5    0.60    3.20
  15  -2  -5   -3.60    2.40
 -15  -2   5   -0.50    3.30
  15  -2  -5    6.00    4.40
  15  -2  -5    3.10    3.90
 -15  -2   5   -5.20    2.00
  15   2  -4    5.60    4.00
  15   2  -4    9.90    5.30
  15  -2  -4    5.90    4.00
  15  -2  -4    0.80    3.20
  15  -2  -4    9.10    4.90
 -15  -2   4    8.10    3.30
 -15  -2   4   11.40    4.60
  15   2  -3   48.40    8.10
  15   2  -3   37.60    7.90
  15   2  -3   48.40    9.20
  15  -2  -3   34.40    7.30
  15  -2  -3   27.70    6.90
 -15  -2   3   36.30    7.70
 -15  -2   3   45.00    7.40
  15  -2  -3   33.00    7.80
  15   2  -2    1.90    3.10
  15   2  -2    4.40    3.60
  15   2  -2    2.00    3.80
 -15  -2   2    3.40    4.10
 -15  -2   2   -1.40    2.80
  15  -2  -2   -1.10    3.10
  15  -2  -2   -2.20    3.80
  15   2  -1    9.70    4.40
 -15   2   1   10.80    4.70
  15   2  -1   10.20    4.00
  15  -2  -1   10.00    4.20
  15  -2  -1   11.70    4.00
 -15  -2   1    7.20    4.10
 -15  -2   1    8.10    4.40
  15   2   0    1.20    3.60
 -15   2   0    4.50    3.90
  15   2   0    6.20    3.80
 -15  -2   0    2.60    3.80
 -15  -2   0    9.90    4.30
  15  -2   0    0.60    2.80
  15  -2   0    0.10    3.00
 -15   2  -1    5.20    4.50
  15   2   1    1.30    3.10
  15   2   1    4.30    3.90
 -15  -2  -1    5.40    4.50
  15  -2   1    0.70    3.00
  15  -2   1    7.90    4.20
  15   2   2   49.10    9.20
 -15   2  -2   38.90    9.40
  15   2   2   41.00    9.80
 -15   2  -2   48.30    9.70
  15  -2   2   45.20    8.60
 -15  -2  -2   72.79   11.50
  15  -2   2   62.39   10.20
 -15   2  -3   10.40    5.90
  15   2   3   30.50    7.70
  15   2   3   19.20    5.60
 -15   2  -3   22.70    7.40
  15  -2   3   16.40    5.90
  15  -2   3   26.80    5.90
 -15  -2  -3   26.00    7.10
  15   2   4   11.50    4.80
 -15   2  -4    8.50    6.00
 -15   2  -4   24.90    7.00
  15   2   4   15.40    6.00
  15  -2   4   11.50    4.60
 -15  -2  -4    6.80    5.50
  15  -2   4    3.90    4.10
  15   2   5   -8.80    3.10
 -15   2  -5   -2.80    4.60
 -15  -2  -5   -3.90    4.50
  15  -2   5   -7.20    3.50
  15  -2   5    1.10    3.60
 -15  -2  -5    4.30    5.70
 -15   2  -6    0.60    6.00
  15   2   6   -3.00    3.50
 -15  -2  -6   -0.80    6.00
  15  -2   6   -3.40    3.00
  15  -2   6   -0.60    4.30
  15   3 -11    3.70    6.20
 -15   3  11    7.80    4.40
  15  -3 -11    4.00    5.60
 -15  -3  11    8.90    4.20
  15   3 -10   -1.00    5.50
 -15  -3  10    0.00    2.90
  15  -3 -10    2.20    4.50
  15   3  -9    5.80    3.80
  15   3  -9    2.90    5.20
 -15  -3   9    2.70    3.10
  15  -3  -9    4.10    4.50
  15   3  -8    6.30    3.70
  15   3  -8   -0.30    4.30
 -15  -3   8    1.80    3.20
  15  -3  -8   -2.90    3.90
  15   3  -7   -3.10    3.80
  15   3  -7   -1.50    3.80
 -15  -3   7    0.40    3.40
 -15  -3   7   -1.60    3.00
  15  -3  -7   -2.30    3.90
  15   3  -6   -1.00    3.30
  15   3  -6    6.30    4.40
 -15  -3   6   -1.70    3.50
  15  -3  -6    4.30    3.00
 -15  -3   6    0.30    2.80
  15  -3  -6   -3.50    3.70
  15   3  -5    0.20    3.40
  15   3  -5   -5.60    2.90
  15  -3  -5    0.50    3.80
 -15  -3   5   -3.30    2.40
  15  -3  -5   -2.90    2.30
 -15  -3   5   -1.10    3.20
  15   3  -4   16.60    5.40
  15   3  -4    9.10    4.30
 -15  -3   4    3.20    3.50
  15  -3  -4   15.40    4.20
 -15  -3   4    8.10    4.40
  15  -3  -4   10.70    4.60
  15   3  -3   21.50    6.60
  15   3  -3   22.80    6.50
  15   3  -3   25.40    6.10
  15  -3  -3   33.80    6.40
  15  -3  -3   31.50    6.80
 -15  -3   3   21.70    6.40
 -15  -3   3   31.40    6.50
  15   3  -2   13.10    4.60
 -15   3   2   12.00    4.00
  15   3  -2    5.40    4.20
  15   3  -2   -0.60    3.50
 -15  -3   2    3.60    4.50
  15  -3  -2   11.20    4.10
  15  -3  -2   11.80    4.50
 -15  -3   2    6.90    4.10
  15   3  -1    5.60    3.80
 -15   3   1    9.00    4.00
  15   3  -1    2.80    3.70
 -15  -3   1   12.60    5.10
  15  -3  -1    3.90    3.90
  15  -3  -1   -0.10    3.40
 -15  -3   1    4.50    4.50
 -15   3   0   -0.10    3.50
  15   3   0   -3.00    3.40
  15   3   0    7.50    4.00
 -15  -3   0    8.20    4.70
  15  -3   0    0.10    2.90
  15  -3   0   -0.60    3.30
  15   3   1   45.90    8.00
 -15   3  -1   43.40    8.30
  15   3   1   37.20    8.20
 -15   3  -1   36.60    7.50
  15  -3   1   33.90    7.40
 -15  -3  -1   44.10    8.60
  15  -3   1   17.30    5.70
 -15   3  -2  132.99   17.30
 -15   3  -2  115.49   17.20
  15   3   2  125.49   16.90
  15   3   2  132.99   18.00
  15  -3   2  124.59   16.10
  15  -3   2   89.09   15.90
 -15  -3  -2  110.99   17.20
  15   3   3   -2.80    3.20
 -15   3  -3    9.40    4.80
  15   3   3    3.90    4.30
 -15   3  -3   -2.10    4.40
 -15  -3  -3    3.20    4.70
  15  -3   3    1.80    3.40
  15  -3   3    4.40    3.70
 -15   3  -4   -0.90    4.20
  15   3   4    0.40    3.70
 -15   3  -4   -4.90    4.20
 -15  -3  -4    9.40    5.60
  15  -3   4    6.40    4.60
  15  -3   4    3.40    3.60
 -15   3  -5   -3.70    4.30
 -15   3  -5    5.90    5.70
  15   3   5   -3.00    3.30
  15  -3   5    0.70    3.20
  15  -3   5   -2.20    3.50
 -15   3  -6    1.80    5.40
  15  -4 -11   -7.20    4.90
  15   4 -10   -2.40    4.70
  15  -4 -10    5.60    5.40
 -15  -4  10   -1.10    3.30
  15   4  -9    1.50    5.10
  15   4  -9    4.70    3.90
 -15  -4   9    3.70    3.60
  15  -4  -9    8.70    5.00
  15   4  -8    9.00    5.20
  15   4  -8   17.80    5.40
 -15  -4   8   11.70    4.90
 -15  -4   8   10.00    4.20
  15  -4  -8   13.10    5.50
  15   4  -7    1.80    4.10
  15   4  -7    3.20    3.80
  15  -4  -7    1.30    4.30
 -15  -4   7    6.10    3.90
 -15  -4   7    3.60    3.40
  15   4  -6   39.40    8.50
  15   4  -6   28.60    7.90
 -15  -4   6   30.40    6.80
 -15  -4   6   34.60    7.70
  15  -4  -6   62.49   10.10
  15   4  -5    0.90    3.80
  15   4  -5    2.30    4.00
 -15  -4   5    3.50    3.40
  15  -4  -5    0.80    3.70
  15  -4  -5   -1.30    3.00
 -15  -4   5    1.90    3.70
  15   4  -4    0.30    3.70
  15   4  -4    4.20    4.10
  15   4  -4   -1.10    3.50
 -15  -4   4   -2.10    3.10
 -15  -4   4   -1.30    3.30
  15  -4  -4   -0.10    2.90
  15  -4  -4   -2.60    3.60
  15   4  -3    1.90    3.50
  15   4  -3    5.80    4.10
  15   4  -3    0.80    3.30
 -15  -4   3    8.00    4.20
 -15  -4   3    8.50    4.50
  15  -4  -3   -2.50    3.10
  15  -4  -3    2.50    3.90
  15   4  -2    6.20    4.20
 -15   4   2   12.70    4.30
  15   4  -2   10.90    4.60
  15   4  -2   12.50    5.20
 -15  -4   2    8.80    4.50
  15  -4  -2    3.60    4.30
  15  -4  -2    2.60    3.50
 -15  -4   2   11.70    4.90
 -15   4   1   35.80    6.80
  15   4  -1   31.40    6.90
  15   4  -1   26.30    7.10
  15   4  -1   29.80    7.40
  15  -4  -1   27.80    6.80
 -15  -4   1   27.20    6.90
 -15  -4   1   39.80    8.10
  15  -4  -1   27.80    6.50
  15   4   0    4.90    3.90
  15   4   0    8.50    5.20
 -15   4   0    3.00    3.80
 -15  -4   0   -3.00    4.10
  15  -4   0    8.50    3.80
  15  -4   0    1.90    4.00
 -15   4  -1   35.40    6.90
  15   4   1   13.80    5.40
 -15   4  -1   18.40    5.70
  15   4   1   16.30    6.10
  15  -4   1   17.80    5.30
  15  -4   1   16.10    5.50
 -15  -4  -1   19.70    6.60
  15  -4   1   16.70    5.00
 -15   4  -2   47.20    8.40
  15   4   2   39.40    8.80
  15   4   2   24.60    6.90
 -15   4  -2   25.20    7.40
  15  -4   2   42.90   11.00
 -15  -4  -2   32.00    8.20
  15  -4   2   39.90    7.20
  15  -4   2   33.20    8.90
  15   4   3   15.20    5.60
  15   4   3   26.60    7.10
 -15   4  -3   10.60    5.40
 -15   4  -3    4.00    4.60
  15  -4   3   24.10    5.60
  15  -4   3   21.10    5.60
 -15  -4  -3   19.10    6.10
 -15   4  -4   15.00    6.20
 -15   4  -4   23.10    6.90
  15   4   4   22.60    6.30
  15  -4   4    9.30    5.00
 -15  -4  -4   35.40    8.00
  15  -4   4   19.10    5.50
 -15   4  -5    4.80    6.00
  15   4   5   -1.60    4.10
 -15   4  -5    2.80    5.20
  15  -4   5    5.20    4.40
  15  -4   5    0.20    3.70
  15  -5 -10   -4.10    5.70
  15   5  -9   49.40   10.00
  15   5  -9   41.50    8.30
  15  -5  -9   32.10    9.10
 -15  -5   9   47.20    8.20
  15   5  -8   35.80    9.20
  15   5  -8   55.99    9.30
 -15  -5   8   45.90    8.70
  15  -5  -8   29.00    8.80
 -15  -5   8   54.69    8.60
  15   5  -7   12.30    5.60
  15   5  -7    7.60    4.70
 -15  -5   7   15.20    5.30
  15  -5  -7    6.60    5.20
 -15  -5   7    4.90    3.80
  15   5  -6  131.49   17.10
  15   5  -6  118.39   15.80
 -15  -5   6  121.59   15.90
 -15  -5   6   87.79   13.80
  15  -5  -6   73.29   14.40
  15   5  -5   38.10    9.10
  15   5  -5   46.10    9.90
 -15  -5   5   62.29   10.20
 -15  -5   5   56.49    9.30
  15  -5  -5   46.00    8.10
  15  -5  -5   44.90    9.50
  15   5  -4    5.00    4.30
  15   5  -4    0.90    3.40
  15   5  -4   -1.50    4.10
 -15  -5   4   -1.90    2.90
  15  -5  -4    0.60    3.80
 -15  -5   4    4.20    4.10
  15  -5  -4   -2.90    3.00
  15   5  -3    9.00    5.20
  15   5  -3    8.80    4.70
  15   5  -3   22.20    6.20
  15  -5  -3    8.80    4.30
 -15  -5   3   13.70    5.00
  15  -5  -3   12.50    5.20
 -15  -5   3   10.80    4.70
  15   5  -2    3.80    4.20
  15   5  -2    3.90    3.90
  15   5  -2    3.70    3.90
  15  -5  -2   -0.90    3.10
 -15  -5   2    6.60    4.40
 -15  -5   2   -0.50    3.90
  15  -5  -2    0.80    3.80
 -15   5   1    5.30    3.80
  15   5  -1   10.60    5.40
  15   5  -1    7.20    4.90
  15   5  -1    6.60    4.70
  15  -5  -1    8.70    4.80
 -15  -5   1   17.90    6.20
  15  -5  -1    7.60    4.20
  15   5   0    1.00    4.30
  15   5   0    0.60    3.40
  15   5   0    4.30    4.20
 -15   5   0   -1.30    3.00
 -15   5   0    4.50    3.90
  15  -5   0    3.70    3.90
  15  -5   0    0.00    3.40
 -15  -5   0   -0.50    3.90
 -15   5  -1    0.10    3.40
 -15   5  -1    0.30    3.80
  15   5   1   -3.40    3.30
  15   5   1    8.30    4.90
  15  -5   1    0.30    3.60
  15  -5   1   -6.00    3.20
 -15  -5  -1    3.60    5.00
  15   5   2    4.30    4.10
  15   5   2   -3.60    4.00
 -15   5  -2   -4.40    3.40
 -15   5  -2    5.70    4.70
  15  -5   2   -3.10    3.60
 -15  -5  -2    0.80    4.70
  15  -5   2   -4.00    3.20
  15  -5   2    1.00    3.70
 -15   5  -3    9.60    5.30
  15   5   3    3.50    4.50
 -15   5  -3   -1.50    4.60
  15  -5   3   -4.30    3.30
  15  -5   3   -3.30    3.60
 -15  -5  -3    1.40    5.20
  15  -5   3   -0.10    3.70
 -15   5  -4    5.30    5.10
  15   6  -8   12.00    5.20
  15   6  -8    7.10    5.70
 -15  -6   8    3.70    3.90
 -15  -6   8    7.00    5.10
  15  -6  -8    2.90    5.50
  15   6  -7    5.20    5.50
  15   6  -7   -0.40    4.70
  15  -6  -7    2.00    5.50
 -15  -6   7    1.10    3.40
 -15  -6   7    5.90    4.50
  15   6  -6   15.60    6.30
  15   6  -6    5.30    4.90
  15  -6  -6   17.00    6.40
 -15  -6   6   12.10    4.50
 -15  -6   6    3.10    4.60
  15   6  -5   21.60    7.00
  15   6  -5   22.40    6.60
 -15  -6   5   21.10    6.00
 -15  -6   5   10.50    4.80
  15  -6  -5   25.30    7.70
  15   6  -4   12.50    6.40
  15   6  -4   12.50    5.80
  15   6  -4   17.70    6.10
 -15  -6   4   30.70    6.30
  15  -6  -4   17.80    6.40
  15  -6  -4   16.70    4.90
 -15  -6   4   26.80    7.00
  15   6  -3    0.10    3.80
  15   6  -3    6.00    4.70
  15   6  -3    0.50    4.00
 -15  -6   3    2.70    4.80
  15  -6  -3    1.10    3.40
 -15  -6   3   10.90    4.80
  15  -6  -3    5.40    4.50
  15   6  -2    6.60    4.40
  15   6  -2    8.00    5.00
  15   6  -2    5.70    4.80
  15  -6  -2   -1.90    3.20
 -15  -6   2    7.60    5.30
  15  -6  -2    0.30    4.10
  15   6  -1   -4.30    3.80
  15   6  -1    4.20    4.70
  15   6  -1   -0.50    4.10
 -15   6   1    1.00    3.50
  15  -6  -1    7.80    4.40
 -15  -6   1    0.30    4.60
  15  -6  -1   -0.30    3.60
 -15   6   0    9.00    4.50
  15   6   0    5.00    5.50
  15   6   0   14.00    5.50
  15   6   0   12.70    5.70
 -15   6   0   10.50    4.90
  15  -6   0   12.50    4.80
 -15  -6   0   11.00    5.90
  15  -6   0   19.50    6.10
 -15   6  -1   17.60    5.70
  15   6   1   15.70    6.30
  15   6   1   22.00    7.20
 -15   6  -1   25.90    6.30
  15   6   1   16.40    5.90
 -15  -6  -1   25.50    7.40
  15  -6   1   15.60    5.80
  15  -6   1   28.40    6.80
  15   6   2   11.10    5.90
  15   6   2    6.30    4.80
  15   6   2   11.50    6.30
 -15   6  -2    4.80    5.40
 -15   6  -2    9.90    5.40
  15  -6   2    8.20    5.30
 -15  -6  -2   15.30    6.30
  15  -6   2   12.60    5.10
  15   7  -4   12.10    6.10
  15   7  -4   -4.00    4.30
  15  -7  -4    5.70    5.40
 -15  -7   4    2.40    7.10
  15   7  -3   -3.30    4.20
  15   7  -3    8.00    5.10
  15  -7  -3    0.80    3.80
 -15  -7   3   -3.30    5.00
  15  -7  -3    0.40    4.90
  15   7  -2    0.80    5.00
  15   7  -2   -9.80    3.70
  15  -7  -2   -0.90    3.60
  15  -7  -2   -3.40    5.00
 -15  -7   2   -3.90    4.50
  16   0 -11   -8.40    5.60
 -16   0  11    3.00    3.50
 -16   0  10    2.60    3.20
  16   0 -10   -2.70    6.20
 -16   0   9   -1.70    2.60
  16   0  -9    6.80    6.10
  16   0  -8    2.30    5.50
 -16   0   8    7.30    3.40
  16   0  -7   -4.50    2.40
 -16   0   7    2.00    2.90
  16   0  -7    4.60    5.50
  16   0  -6   -2.40    3.60
  16   0  -6    8.80    3.40
  16   0  -5    2.00    4.30
  16   0  -5    2.70    3.20
  16   0  -4  248.18   31.00
  16   0  -4  256.67   30.40
  16   0  -3    1.40    3.90
  16   0  -3    5.30    4.80
  16   0  -2   -1.20    3.90
  16   0  -2   -1.70    3.30
  16   0  -2    6.40    3.80
  16   0  -1   -4.10    2.30
  16   0  -1   -2.20    3.30
  16   0   0    4.90    4.20
  16   0   0    4.10    3.70
  16   0   1    0.00    3.40
  16   0   1    6.40    4.00
  16   0   2   85.79   13.10
  16   0   2   74.39   13.30
 -16   0  -3    3.10    5.80
  16   0   3    4.90    4.70
  16   0   3   -1.70    3.40
  16   0   4    4.10    4.70
  16   0   4    6.20    4.50
 -16   0  -4   15.90    7.00
 -16   0  -5    6.50    6.70
  16   0   5   -5.30    3.60
 -16   0  -5   -1.50    5.50
  16   0   5   13.20    5.60
 -16   1  11    2.10    3.70
  16   1 -11    2.30    6.30
  16  -1 -11   -0.90    4.70
  16  -1 -11   -4.60    5.60
 -16  -1  11    0.60    3.40
  16   1 -10    3.20    5.90
 -16   1  10    0.60    2.80
 -16  -1  10    1.00    3.10
  16  -1 -10    7.60    5.40
  16  -1 -10   -4.80    5.50
  16   1  -9   20.00    7.20
 -16   1   9   12.30    4.10
  16  -1  -9   11.80    7.10
  16  -1  -9    4.40    5.00
 -16  -1   9   11.20    4.00
  16   1  -8    4.60    3.80
  16   1  -8    4.00    5.50
 -16  -1   8    9.50    3.80
  16  -1  -8    6.60    5.80
  16   1  -7    0.50    4.80
  16   1  -7    1.90    3.10
 -16  -1   7    1.10    2.90
  16  -1  -7   -1.40    2.60
  16  -1  -7    1.80    4.90
  16   1  -6   -2.90    3.00
  16   1  -6    2.40    4.50
 -16  -1   6    9.20    3.60
  16  -1  -6   -6.60    3.90
  16  -1  -6    8.70    3.50
 -16  -1   6    2.50    3.90
  16   1  -5    1.60    4.20
  16   1  -5    1.70    3.10
  16  -1  -5    3.70    4.50
  16  -1  -5   -1.60    2.80
 -16  -1   5   -1.20    2.80
  16   1  -4    2.50    3.30
  16   1  -4   -2.10    3.90
  16  -1  -4   -0.30    3.20
 -16  -1   4   -0.10    3.00
  16  -1  -4    0.10    4.40
  16   1  -3  127.69   17.60
  16   1  -3  117.09   18.00
  16  -1  -3  118.39   17.40
 -16  -1   3  150.68   17.80
  16  -1  -3  113.29   17.90
  16   1  -2   11.70    4.40
  16   1  -2   11.90    4.70
  16   1  -2   16.60    6.00
  16  -1  -2    8.40    5.10
  16  -1  -2   13.80    5.20
 -16  -1   2   16.30    5.00
  16   1  -1    6.60    4.10
  16   1  -1    1.60    3.50
  16  -1  -1    1.80    4.80
  16  -1  -1    4.40    3.90
 -16  -1   1    6.90    4.30
  16  -1  -1    9.80    4.50
  16   1   0    7.80    4.30
  16   1   0   13.60    5.30
 -16  -1   0    9.70    5.40
  16  -1   0    9.20    4.60
  16  -1   0   13.70    5.50
  16   1   1   15.10    5.70
  16   1   1   10.80    4.50
  16  -1   1    1.70    3.60
  16  -1   1    8.80    4.80
  16   1   2   -2.20    3.60
 -16   1  -2    3.30    5.20
  16   1   2    2.90    4.10
  16  -1   2   -1.10    3.50
  16  -1   2    2.80    4.10
  16   1   3   -2.30    4.10
  16   1   3    1.40    3.50
 -16   1  -3    2.90    5.10
  16  -1   3   -8.10    2.80
 -16  -1  -3    1.20    5.10
  16  -1   3   -0.30    3.50
  16   1   4    0.20    3.50
  16   1   4    8.00    5.70
 -16   1  -4    6.10    7.00
  16  -1   4   -1.90    3.20
 -16  -1  -4    4.40    5.60
  16  -1   4    1.70    4.20
  16   1   5    6.40    4.80
 -16   1  -5    0.20    6.60
 -16  -1  -5   11.10    7.70
 -16  -1  -5    1.40    5.90
  16  -1   5    3.80    4.20
  16  -1   5    0.30    4.70
  16   2 -11   -4.50    5.70
 -16   2  11    0.00    3.50
 -16  -2  11   -2.00    3.20
  16  -2 -11   -6.30    4.60
 -16   2  10   -1.30    2.90
  16   2 -10    4.50    6.50
  16  -2 -10   12.40    5.90
 -16  -2  10    2.70    3.50
  16  -2 -10   -5.40    9.00
  16   2  -9    6.80    6.10
  16  -2  -9   -1.50    6.30
 -16  -2   9    5.10    3.80
  16  -2  -9    1.20    4.80
  16   2  -8   30.70    6.90
  16   2  -8   35.80    9.00
 -16  -2   8   27.20    6.10
  16  -2  -8   26.60    7.50
  16  -2  -8   45.70    9.80
  16   2  -7   14.60    4.90
  16   2  -7   20.50    7.20
 -16  -2   7   20.10    5.70
  16  -2  -7   11.00    5.40
 -16  -2   7    6.20    3.90
  16  -2  -7   11.20    6.40
  16   2  -6    0.00    4.50
  16   2  -6   -3.30    3.10
  16  -2  -6   -4.60    3.70
  16  -2  -6    3.40    2.90
 -16  -2   6    2.80    3.20
  16  -2  -6    9.00    5.30
 -16  -2   6    0.70    3.80
  16   2  -5    0.10    3.60
  16   2  -5   13.90    5.50
  16  -2  -5   19.60    6.60
  16  -2  -5   12.90    4.30
 -16  -2   5   13.80    4.90
 -16  -2   5    2.90    3.50
  16   2  -4   11.80    6.00
  16   2  -4   29.20    6.90
 -16  -2   4   20.70    5.60
 -16  -2   4   30.80    6.70
  16  -2  -4   26.20    6.20
  16  -2  -4   24.90    7.20
  16   2  -3    3.00    4.00
  16   2  -3    5.50    4.00
  16   2  -3    5.60    5.10
 -16  -2   3    2.50    3.50
  16  -2  -3   10.20    4.50
  16  -2  -3    4.80    5.10
 -16  -2   3    7.30    4.50
  16   2  -2   14.00    4.80
  16   2  -2   -2.40    3.10
  16   2  -2    1.50    4.70
 -16  -2   2    3.50    4.10
 -16  -2   2    8.00    4.70
  16  -2  -2    7.70    4.10
  16  -2  -2   -3.40    4.30
  16   2  -1    3.90    3.40
  16   2  -1    5.50    4.80
  16   2  -1   -0.90    3.40
  16  -2  -1    2.80    4.40
 -16  -2   1    7.70    4.80
 -16  -2   1   -1.90    4.00
  16  -2  -1   -0.20    3.60
 -16   2   0    3.00    4.30
  16   2   0    3.70    3.70
  16   2   0   -3.00    3.40
 -16  -2   0   -4.50    4.00
  16  -2   0    8.10    4.60
  16  -2   0    3.60    3.40
 -16   2  -1   -1.50    4.00
  16   2   1   -0.80    3.10
  16   2   1    1.90    3.90
  16  -2   1   -2.20    3.60
 -16  -2  -1   -1.20    4.10
  16  -2   1   -0.90    3.10
 -16   2  -2   -1.60    4.70
  16   2   2   -2.70    3.00
  16   2   2   -4.70    3.90
  16  -2   2   -0.50    3.80
  16  -2   2    7.20    4.30
 -16  -2  -2    9.10    5.50
  16   2   3    5.90    5.20
 -16   2  -3   -1.40    5.10
  16   2   3    3.20    3.90
  16  -2   3    8.80    4.30
  16  -2   3  -11.10    3.10
 -16  -2  -3    7.00    6.00
  16   2   4   -2.40    4.90
 -16   2  -4    0.60    5.50
  16   2   4    5.60    4.40
  16  -2   4   -4.20    4.20
 -16  -2  -4    3.80    5.80
  16  -2   4   -6.30    3.10
  16   3 -10    4.70    6.70
  16  -3 -10    2.40    5.30
 -16  -3  10    8.70    4.00
  16   3  -9   17.80    7.60
 -16  -3   9   12.80    4.70
  16  -3  -9   11.50    5.80
  16   3  -8   17.60    7.20
  16   3  -8   14.10    4.50
  16  -3  -8   14.70    5.90
 -16  -3   8   12.80    4.60
  16   3  -7    2.40    4.20
  16   3  -7   11.10    6.00
 -16  -3   7   11.10    4.70
 -16  -3   7    5.00    3.70
  16  -3  -7    1.60    4.80
  16   3  -6   -2.70    3.40
  16   3  -6    2.50    4.60
  16  -3  -6   -5.30    3.60
 -16  -3   6   -3.00    2.80
 -16  -3   6    6.40    3.80
  16  -3  -6   -0.10    3.00
  16   3  -5    4.10    4.00
  16   3  -5    4.50    4.40
  16  -3  -5    1.40    3.80
 -16  -3   5    7.50    4.30
 -16  -3   5    9.90    4.30
  16  -3  -5    1.70    3.20
  16   3  -4   17.80    5.70
  16   3  -4    6.90    4.90
  16  -3  -4   10.30    4.60
 -16  -3   4   20.40    5.40
  16  -3  -4   10.30    5.10
 -16  -3   4    5.80    4.90
  16   3  -3   22.60    6.60
  16   3  -3   20.80    6.90
  16   3  -3   45.90    8.60
 -16  -3   3   33.10    7.50
  16  -3  -3   26.90    6.80
  16  -3  -3   44.60    7.80
 -16  -3   3   34.80    7.10
  16   3  -2   38.50    7.80
  16   3  -2   29.70    6.80
  16   3  -2   12.80    6.10
 -16  -3   2   31.00    7.40
 -16  -3   2   34.50    7.00
  16  -3  -2   20.40    5.90
  16   3  -1    0.00    3.70
  16   3  -1    3.20    4.30
 -16   3   1    0.50    3.70
  16   3  -1    3.40    3.50
  16  -3  -1   -4.10    3.60
 -16  -3   1   -3.30    4.40
 -16  -3   1   -1.70    3.80
  16   3   0   18.50    5.80
  16   3   0    5.40    4.10
 -16   3   0   11.40    5.20
  16  -3   0    7.30    5.90
  16  -3   0    8.60    5.00
 -16  -3   0    5.70    5.90
  16   3   1   53.89   10.10
  16   3   1   51.79    8.90
 -16   3  -1   44.20    9.30
  16  -3   1   31.80    7.60
 -16  -3  -1   62.09   10.60
  16  -3   1   38.60    8.70
  16   3   2   30.50    8.30
 -16   3  -2   25.10    8.20
  16   3   2   31.60    7.40
  16  -3   2   41.60    8.60
  16  -3   2   31.60    7.30
 -16  -3  -2   54.19   10.00
  16   3   3   26.90    6.50
 -16   3  -3   22.70    7.70
 -16   3  -3   43.40    8.70
  16   3   3   15.50    7.10
  16  -3   3   17.20    6.80
 -16  -3  -3   41.80    8.50
  16  -3   3   23.80    5.80
 -16   3  -4    3.30    5.60
 -16   3  -4    7.10    6.20
  16   3   4   -1.50    3.90
  16  -3   4   -3.50    4.20
 -16  -3  -4    1.30    5.90
  16  -3   4   -1.30    3.80
  16   4  -9    7.00    5.70
  16   4  -9    3.30    6.30
 -16  -4   9    1.00    3.90
  16  -4  -9   -2.40    4.90
  16   4  -8   33.40    7.40
  16   4  -8   42.70    9.40
  16  -4  -8   32.80    8.80
 -16  -4   8   37.40    7.20
 -16  -4   8   32.90    8.00
  16   4  -7   80.99   11.80
  16   4  -7   55.09   11.80
 -16  -4   7   67.49   10.30
 -16  -4   7   67.19   11.00
  16  -4  -7   43.70   10.40
  16   4  -6    9.40    5.40
  16   4  -6    8.20    4.80
  16  -4  -6    3.30    4.90
 -16  -4   6    9.60    5.20
 -16  -4   6    6.20    4.00
  16   4  -5   -0.70    3.80
  16   4  -5    2.50    4.00
 -16  -4   5   -0.20    3.30
  16  -4  -5    1.00    3.40
  16  -4  -5   -5.80    3.80
 -16  -4   5   -3.80    3.50
  16   4  -4    2.70    4.40
  16   4  -4   12.20    5.20
  16  -4  -4   -0.10    3.20
 -16  -4   4    3.10    3.80
  16  -4  -4    3.10    4.70
 -16  -4   4   -3.60    3.60
  16   4  -3    3.80    4.40
  16   4  -3    3.70    4.50
  16   4  -3    5.20    4.80
 -16  -4   3    8.40    4.90
  16  -4  -3    2.30    3.80
  16  -4  -3   10.50    5.30
 -16  -4   3   14.70    5.20
  16   4  -2   28.00    6.70
  16   4  -2   36.60    7.80
 -16   4   2   33.60    6.50
  16   4  -2   17.80    6.60
  16  -4  -2   21.80    6.60
  16  -4  -2   23.50    6.30
 -16  -4   2   20.20    6.80
 -16  -4   2   27.40    7.00
  16   4  -1    2.90    3.60
  16   4  -1    0.00    4.30
 -16   4   1   -2.40    3.10
  16   4  -1    1.10    4.00
 -16  -4   1   -3.20    4.30
  16  -4  -1   -1.50    3.40
  16  -4  -1   -0.60    4.10
 -16   4   0   67.79   12.10
  16   4   0   74.79   12.10
  16   4   0   95.39   14.10
  16   4   0   79.19   13.60
  16  -4   0   65.69   12.40
 -16  -4   0   97.79   14.10
  16   4   1   70.99   11.90
 -16   4  -1   80.19   12.70
  16   4   1   72.99   12.90
  16  -4   1   49.60   11.10
 -16  -4  -1  102.09   14.20
 -16   4  -2   12.50    6.00
  16   4   2    7.40    4.90
  16   4   2   20.90    6.80
 -16   4  -2   14.50    6.00
  16  -4   2   13.10    4.80
  16  -4   2    9.60    5.30
 -16  -4  -2   19.30    6.40
  16   4   3    5.50    4.70
 -16   4  -3    7.40    5.90
  16   4   3    8.60    5.70
 -16   4  -3    6.60    5.50
  16  -4   3    1.00    4.00
 -16  -4  -3    4.90    5.80
  16  -4   3   -2.50    4.40
  16  -5  -8  -11.00    4.10
  16   5  -7   27.00    7.10
  16   5  -7   21.30    7.60
  16  -5  -7   16.80    6.80
 -16  -5   7   38.90    7.30
 -16  -5   7   44.00    8.60
  16   5  -6    4.40    4.70
  16   5  -6    2.80    4.50
  16  -5  -6   -2.20    4.40
 -16  -5   6    1.60    3.80
 -16  -5   6    9.40    4.90
  16   5  -5    3.60    4.90
  16   5  -5    1.40    4.20
  16  -5  -5   10.10    5.40
 -16  -5   5    1.40    3.50
 -16  -5   5    5.20    4.60
  16   5  -4    4.50    4.40
  16   5  -4    6.40    5.20
  16  -5  -4   -3.70    3.90
 -16  -5   4    8.40    4.60
 -16  -5   4   -1.90    4.60
  16  -5  -4    8.80    3.80
  16   5  -3    2.60    4.60
 -16   5   3   -0.50    3.20
  16   5  -3    8.60    4.60
  16   5  -3    1.40    4.20
  16  -5  -3    3.90    4.60
 -16  -5   3    5.80    4.50
 -16  -5   3    4.10    4.70
  16  -5  -3   -1.70    3.60
 -16   5   2    1.40    3.10
  16   5  -2    3.00    4.10
  16   5  -2    7.50    4.70
  16   5  -2    4.50    4.60
  16  -5  -2    1.10    3.90
  16  -5  -2    6.30    4.80
 -16  -5   2    1.40    4.70
 -16   5   1    0.80    3.90
  16   5  -1   -2.40    4.40
  16   5  -1    0.50    3.80
  16   5  -1    2.30    4.70
  16  -5  -1   -0.90    4.40
  16  -5  -1    0.40    3.60
 -16  -5   1    2.80    5.10
 -16   5   0    3.20    4.30
  16   5   0    1.00    5.20
  16   5   0    5.50    4.80
  16   5   0    3.80    4.90
 -16  -5   0    8.30    6.00
  16  -5   0    8.10    4.90
  16  -5   0    3.20    4.60
  16   5   1    1.80    4.90
  16   5   1   -2.60    5.30
  16   5   1    4.90    4.50
 -16   5  -1   -0.50    4.30
  16  -5   1    5.60    4.70
 -16  -5  -1   -0.20    5.20
  16  -5   1   -2.80    4.20
  16  -6  -5   11.20    6.10
  16   6  -4    1.20    5.00
  16   6  -4    9.20    5.50
 -16  -6   4   11.50    5.00
  16  -6  -4    7.00    5.20
 -16  -6   4   -4.20    4.40
  16   6  -3    2.40    4.50
  16   6  -3    1.90    4.30
 -16   6   3    3.60    3.90
  16   6  -3   -2.70    4.40
  16  -6  -3    1.40    3.90
 -16  -6   3   -4.60    4.70
  16  -6  -3    6.70    5.40
  16   6  -2   -1.30    4.80
 -16   6   2   -1.30    3.70
  16   6  -2    2.30    4.80
  16   6  -2    7.30    5.30
  16  -6  -2    3.90    5.10
  16  -6  -2   -1.60    3.90
 -17   0   9   -6.60    2.80
  17   0  -9    7.30    7.20
  17   0  -8   -3.50    5.60
 -17   0   8    3.60    3.10
  17   0  -7   -3.30    5.20
 -17   0   7   -0.90    2.90
  17   0  -7   -0.50    3.40
 -17   0   6   -1.40    3.20
  17   0  -6    1.20    3.50
  17   0  -6   -0.30    5.30
  17   0  -5   -3.50    4.50
  17   0  -5   -2.90    3.10
  17   0  -4  254.97   33.10
  17   0  -4  312.87   34.50
  17   0  -3   -0.70    4.60
  17   0  -3    5.50    3.90
  17   0  -2   10.00    5.40
  17   0  -2   12.10    5.90
  17   0  -1    3.00    5.20
  17   0  -1   -0.50    3.80
  17   0  -1   -2.40    3.50
  17   0   0    4.10    4.30
  17   0   0   15.80    5.20
  17   0   1   -1.70    3.60
  17   0   1    3.80    4.60
  17   0   2    3.20    4.50
  17   0   2    4.10    5.20
  17   0   3   -2.30    5.10
  17   0   3    4.40    4.80
 -17   1   9   24.00    5.20
  17   1  -9   23.60    8.30
 -17  -1   9   12.40    4.90
  17  -1  -9   27.70    8.80
  17   1  -8   -7.50    5.20
 -17   1   8    0.50    2.80
 -17  -1   8    0.50    3.30
  17  -1  -8    4.40    6.80
  17   1  -7    1.10    3.30
  17   1  -7   -1.50    4.90
  17  -1  -7    0.60    4.80
  17  -1  -7   -5.90    5.20
 -17  -1   7    6.70    3.90
  17   1  -6    2.70    3.40
  17   1  -6    1.90    5.20
 -17  -1   6    0.50    3.10
 -17  -1   6    5.40    4.60
  17  -1  -6    5.50    3.50
  17  -1  -6    0.80    5.40
  17   1  -5   61.19   11.90
  17   1  -5   71.19   13.40
 -17  -1   5   73.39   11.60
  17  -1  -5   82.39   12.10
 -17  -1   5   93.29   12.90
  17  -1  -5   83.89   13.50
  17   1  -4   10.10    5.80
  17   1  -4    0.10    3.50
  17  -1  -4    4.10    5.00
  17  -1  -4    2.30    3.50
 -17  -1   4    2.10    3.80
 -17  -1   4    2.90    4.20
  17   1  -3    1.40    3.90
  17   1  -3    8.50    5.70
 -17  -1   3   -2.60    3.70
  17  -1  -3   -5.90    3.00
  17  -1  -3    0.50    4.90
  17   1  -2   -0.40    4.00
  17   1  -2    0.20    3.60
  17   1  -2    3.10    4.90
  17  -1  -2    5.20    4.50
  17  -1  -2   -3.30    4.80
 -17  -1   2   -5.20    3.60
  17   1  -1   -1.40    3.90
  17   1  -1   -2.10    3.80
  17   1  -1    0.30    4.40
  17  -1  -1   -7.60    4.60
  17  -1  -1   -4.90    3.40
 -17  -1   1    2.60    4.90
  17   1   0   39.30    7.50
  17   1   0   19.70    6.90
  17  -1   0   37.20    7.30
  17  -1   0   30.60    8.00
  17   1   1   11.00    5.90
  17   1   1   16.40    5.60
  17  -1   1   18.70    6.40
  17  -1   1    7.00    5.10
 -17  -1  -1   35.20    8.60
  17   1   2    4.00    4.60
  17   1   2    3.90    5.30
 -17  -1  -2    3.80    5.90
  17  -1   2    1.90    4.10
  17  -1   2    8.30    5.20
  17   1   3    0.70    5.90
  17   1   3   -3.20    4.00
  17  -1   3   -4.00    4.00
  17  -1   3    0.80    4.80
 -17  -1  -3   -2.00    5.20
  17   2  -9   -1.10    6.50
  17  -2  -9    5.40    5.80
 -17  -2   9    1.50    3.60
  17   2  -8   -3.60    3.70
  17   2  -8   -4.30    5.70
 -17  -2   8    1.10    3.30
  17   2  -7   11.20    6.60
 -17  -2   7    1.50    3.40
  17  -2  -7    1.50    6.70
 -17  -2   7   -6.70    3.70
  17   2  -6    2.00    3.30
  17   2  -6   -3.80    4.80
 -17  -2   6    1.90    3.40
  17  -2  -6   -3.00    2.70
  17  -2  -6   -0.30    5.50
 -17  -2   6   -1.10    4.30
  17   2  -5   11.50    4.30
  17   2  -5   -0.30    4.60
  17  -2  -5   -0.40    5.30
 -17  -2   5   -6.10    3.70
 -17  -2   5    0.20    3.30
  17  -2  -5   -0.30    3.20
  17   2  -4   17.60    6.90
  17   2  -4    9.20    4.60
  17  -2  -4   25.90    7.30
  17  -2  -4    8.10    4.90
 -17  -2   4   20.40    5.70
 -17  -2   4    8.10    5.20
  17   2  -3    4.60    4.10
  17   2  -3    0.30    4.80
  17  -2  -3    4.60    5.40
 -17  -2   3    6.30    4.70
 -17  -2   3    2.70    4.10
  17  -2  -3    0.50    3.30
  17   2  -2    7.70    5.40
  17   2  -2   -0.30    4.00
  17   2  -2   -4.20    3.40
 -17  -2   2   -3.20    4.30
  17  -2  -2   -0.10    3.60
 -17  -2   2   -5.70    3.80
  17  -2  -2   -2.00    4.80
  17   2  -1   12.00    4.80
  17   2  -1    5.70    4.60
  17   2  -1   14.40    6.50
 -17  -2   1   11.80    6.00
  17  -2  -1   11.60    5.40
  17  -2  -1   18.00    6.80
 -17  -2   1   19.80    6.50
  17   2   0   13.20    5.30
  17   2   0    1.60    3.90
  17  -2   0   14.00    6.00
 -17  -2   0   15.40    6.70
  17  -2   0   20.30    6.90
  17  -2   0   14.20    5.40
  17   2   1    6.30    5.50
  17   2   1    7.70    4.90
  17  -2   1    9.30    5.10
  17  -2   1    6.60    5.40
 -17  -2  -1   13.30    6.70
  17   2   2    2.70    4.20
  17   2   2    1.30    5.20
 -17   2  -2   -8.70    4.90
 -17  -2  -2    6.10    5.90
  17  -2   2    1.70    4.00
  17  -2   2   -6.20    4.10
  17   3  -8   11.30    4.50
  17   3  -8   -5.10    6.10
 -17  -3   8    6.20    4.10
  17  -3  -8   -2.50    4.60
  17   3  -7   -3.00    5.40
  17   3  -7   -2.80    3.70
 -17  -3   7   -4.60    4.10
 -17  -3   7    0.40    3.30
  17  -3  -7    0.40    5.20
  17   3  -6   17.20    6.40
  17   3  -6    9.40    5.00
 -17  -3   6   10.00    4.30
 -17  -3   6   12.00    5.40
  17  -3  -6    4.60    5.30
  17   3  -5   37.10    7.50
  17   3  -5   22.10    7.30
  17  -3  -5   35.90    6.70
 -17  -3   5   18.40    6.30
  17  -3  -5   27.50   10.60
 -17  -3   5   25.20    6.30
  17   3  -4   20.30    6.60
  17   3  -4   21.20    7.10
 -17  -3   4    9.00    5.30
  17  -3  -4   17.70    5.50
 -17  -3   4   31.10    6.50
  17   3  -3    1.50    4.10
  17   3  -3    0.20    5.20
 -17  -3   3    9.70    5.60
 -17  -3   3    6.00    4.50
  17  -3  -3   11.40    4.90
  17   3  -2    6.50    4.40
  17   3  -2   -2.90    3.70
  17   3  -2   -9.10    4.10
 -17  -3   2   -2.50    4.60
  17  -3  -2   -3.10    3.20
 -17  -3   2    2.30    4.60
  17   3  -1    9.80    6.00
  17   3  -1   10.50    5.20
  17   3  -1   13.00    5.80
 -17  -3   1    8.50    6.10
  17  -3  -1    4.60    4.80
  17   3   0   46.60    9.40
  17   3   0   41.70    8.50
  17   3   0   40.80    9.50
  17  -3   0   39.80    9.00
 -17  -3   0   53.89   10.70
  17   3   1   11.50    5.50
  17   3   1   20.50    7.00
 -17   3  -1   22.00    6.90
  17  -3   1   10.00    5.50
 -17  -3  -1   21.50    7.40
  17  -3   1    8.60    5.50
  17   4  -7   -4.90    4.80
  17   4  -7    3.50    3.80
 -17  -4   7    3.20    3.90
  17  -4  -7    2.40    5.30
 -17  -4   7   -0.10    4.50
  17   4  -6   11.20    5.30
  17   4  -6   -3.90    5.20
  17  -4  -6    6.10    5.80
 -17  -4   6   12.90    5.10
 -17  -4   6   16.00    5.20
  17   4  -5   18.80    5.80
  17   4  -5   13.40    5.80
 -17  -4   5    7.40    5.20
  17  -4  -5    6.60    4.60
 -17  -4   5   14.90    5.30
  17  -4  -5    8.90    5.90
  17   4  -4   -4.60    4.30
  17   4  -4    0.50    4.40
  17  -4  -4   -1.70    3.50
 -17  -4   4    1.80    4.80
 -17  -4   4    5.70    4.60
  17  -4  -4    2.00    5.30
  17   4  -3    5.80    5.10
  17   4  -3    5.10    4.70
 -17  -4   3   -0.40    4.50
  17  -4  -3    7.80    4.50
 -17  -4   3    4.30    4.70
  17  -4  -3    3.30    5.00
  17   4  -2   -2.00    4.00
  17   4  -2    6.30    5.00
  17   4  -2   -2.50    4.20
 -17  -4   2   -2.50    4.40
  17  -4  -2   -1.80    3.90
 -17   4   1   59.49   11.60
  17   4  -1   43.60    9.60
  17   4  -1   34.10    8.10
  17   4  -1   40.70    9.70
  17  -4  -1   49.60    9.50
 -17  -4   1   58.39   10.80
  17   4   0   14.90    5.90
 -17   4   0   20.10    6.70
  17   4   0   24.70    7.30
  17   4   0   13.80    7.00
 -17  -4   0   16.00    7.10
  17  -4   0   21.70    6.90
  18   0  -7   -2.90    6.40
  18   0  -7   -0.50    3.50
 -18   0   7   -3.90    3.40
 -18   0   6  145.79   19.50
  18   0  -6  186.58   22.60
 -18   0   6  158.48   19.10
  18   0  -6  107.59   17.90
 -18   0   5   -0.20    3.80
  18   0  -5   -0.40    5.60
  18   0  -5    1.00    3.60
  18   0  -4    1.00    3.70
 -18   0   4    3.20    4.40
  18   0  -4    2.60    5.50
  18   0  -3    5.50    4.00
 -18   0   3    1.30    4.20
  18   0  -3    1.40    5.90
 -18   0   2    5.60    4.90
  18   0  -2   18.20    6.30
  18   0  -2    2.80    6.30
  18   0  -1   -4.90    5.60
  18   0  -1   -6.00    4.50
 -18   0   1   -5.50    4.60
  18   0   0    4.30    5.60
  18   0   0    3.50    4.90
  18   0   0   11.40    7.50
  18   1  -7   -2.70    6.20
 -18   1   7    3.00    3.90
  18   1  -7    3.10    4.20
 -18  -1   7    5.10    4.30
  18  -1  -7    2.90    6.80
  18   1  -6   47.70   10.90
  18   1  -6   42.30    8.80
 -18  -1   6   56.59    9.50
  18  -1  -6   64.59    9.40
 -18  -1   6   42.60    9.30
  18  -1  -6   61.59   11.90
  18   1  -5   15.40    5.40
  18   1  -5   17.00    7.30
  18  -1  -5   17.30    5.20
 -18  -1   5   31.00    7.40
  18  -1  -5   29.10    8.30
 -18  -1   5   24.70    5.90
  18   1  -4    7.90    4.50
  18   1  -4    4.20    5.90
  18  -1  -4    6.60    3.80
  18  -1  -4    9.60    6.40
 -18  -1   4    0.70    4.20
 -18  -1   4    8.00    5.50
  18   1  -3   -0.10    4.50
  18   1  -3    2.10    5.70
  18  -1  -3   -3.30    3.80
 -18  -1   3    0.20    4.50
  18  -1  -3    0.80    5.80
 -18  -1   3   -2.30    3.90
  18   1  -2   10.60    6.70
  18   1  -2    0.70    4.30
 -18  -1   2   -5.80    4.20
  18  -1  -2   -3.80    5.40
 -18  -1   2   15.20    5.50
  18  -1  -2   -2.20    4.30
  18   1  -1   18.60    7.50
  18   1  -1   19.70    6.10
  18   1  -1   13.80    6.00
 -18  -1   1   30.00    7.70
 -18  -1   1   24.20    7.70
  18  -1  -1   19.40    8.00
  18  -1  -1   23.50    7.10
  18   1   0    4.20    6.50
  18   1   0   -6.10    4.40
  18   1   0   -0.70    4.60
  18  -1   0    0.30    4.60
  18  -1   0   -2.00    6.20
  18  -1   0    1.50    6.20
 -18  -1   0    1.30    5.80
  18   2  -6    3.40    6.80
  18   2  -6    3.50    4.00
 -18  -2   6   -0.10    3.70
  18  -2  -6   -0.80    5.60
 -18  -2   6    0.60    5.30
  18   2  -5   19.50    7.20
  18   2  -5   11.80    5.70
 -18  -2   5   18.90    5.80
 -18  -2   5   11.20    6.10
  18  -2  -5   10.90    4.80
  18   2  -4    6.00    5.80
  18   2  -4    2.10    4.40
  18  -2  -4    3.70    4.40
 -18  -2   4   -0.50    4.70
 -18  -2   4   -1.10    4.00
  18   2  -3    2.40    5.70
  18   2  -3   -2.50    4.40
 -18  -2   3   -2.90    4.20
 -18  -2   3    2.20    4.40
  18  -2  -3    1.80    4.10
  18  -2  -3    7.50   10.10
  18   2  -2   14.40    7.30
  18   2  -2    6.70    5.50
 -18  -2   2    9.60    5.50
 -18  -2   2    8.60    6.20
  18  -2  -2   -0.40    7.70
  18  -2  -2    9.00    5.00
  18   2  -1    2.20    4.40
  18   2  -1    0.80    6.60
  18   2  -1   -4.30    4.30
  18  -2  -1   -6.70    7.00
  18  -2  -1   -5.80    4.60
 -18  -2   1   -7.60    5.00
   0   0   0    0.00    0.00

_computing_structure_solution     'SHELXT 2014/5 (Sheldrick, 2014)'
;
_shelx_hkl_checksum   44129


